Spectre (R) Circuit Simulator
Version 20.1.0.298.isr9 64bit -- 30 Jul 2021
Simulating `input.scs' on dell01 at 11:17:48 AM, Thur Jan 4, 2024 (process id: 97671).
H = mpsImport( "spectre" "ipi" "v0.0" ?session "spectre3_71784_40" )
H->sclSetResultDir( "../psf" )
H->sclRun( "all" )
sclCkt0x7f319c3f2000 = H->sclGetCircuit(  "" )
H->sclQuit(  )
