Spectre (R) Circuit Simulator
Version 20.1.0.298.isr9 64bit -- 30 Jul 2021
Simulating `input.scs' on dell01 at 12:33:34 AM, Mon Dec 4, 2023 (process id: 172348).
H = mpsImport( "spectre" "ipi" "v0.0" ?session "spectre1_157814_3" )
H->sclSetResultDir( "../psf" )
H->sclRun( "all" )
sclCkt0x7f00eaa46000 = H->sclGetCircuit(  "" )
H->sclQuit(  )
