Spectre (R) Circuit Simulator
Version 20.1.0.298.isr9 64bit -- 30 Jul 2021
Simulating `input.scs' on dell01 at 11:42:22 AM, Mon Dec 25, 2023 (process id: 158462).
H = mpsImport( "spectre" "ipi" "v0.0" ?session "spectre0_142004_16" )
H->sclSetResultDir( "../psf" )
H->sclRun( "all" )
sclCkt0x7fb1c770e000 = H->sclGetCircuit(  "" )
sclParam0x7fb1c770e000 = H->sclGetParameter( sclCkt0x7fb1c770e000 "vgs_1" )
H->sclSetAttribute( sclParam0x7fb1c770e000 "value" "0.733333333333333" )
H->sclSetResultDir( "../psf" )
H->sclRun( "all" )
sclCkt0x7fb1c770e000 = H->sclGetCircuit(  "" )
sclParam0x7fb1c770e001 = H->sclGetParameter( sclCkt0x7fb1c770e000 "vgs_1" )
H->sclSetAttribute( sclParam0x7fb1c770e001 "value" "0.766666666666667" )
H->sclSetResultDir( "../psf" )
H->sclRun( "all" )
sclCkt0x7fb1c770e000 = H->sclGetCircuit(  "" )
sclParam0x7fb1c770e002 = H->sclGetParameter( sclCkt0x7fb1c770e000 "vgs_1" )
H->sclSetAttribute( sclParam0x7fb1c770e002 "value" "0.8" )
H->sclSetResultDir( "../psf" )
H->sclRun( "all" )
sclCkt0x7fb1c770e000 = H->sclGetCircuit(  "" )
sclParam0x7fb1c770e003 = H->sclGetParameter( sclCkt0x7fb1c770e000 "vgs_1" )
H->sclSetAttribute( sclParam0x7fb1c770e003 "value" "0.833333333333333" )
H->sclSetResultDir( "../psf" )
H->sclRun( "all" )
sclCkt0x7fb1c770e000 = H->sclGetCircuit(  "" )
sclParam0x7fb1c770e004 = H->sclGetParameter( sclCkt0x7fb1c770e000 "vgs_1" )
H->sclSetAttribute( sclParam0x7fb1c770e004 "value" "0.866666666666667" )
H->sclSetResultDir( "../psf" )
H->sclRun( "all" )
sclCkt0x7fb1c770e000 = H->sclGetCircuit(  "" )
sclParam0x7fb1c770e005 = H->sclGetParameter( sclCkt0x7fb1c770e000 "vgs_1" )
H->sclSetAttribute( sclParam0x7fb1c770e005 "value" "0.9" )
H->sclSetResultDir( "../psf" )
H->sclRun( "all" )
sclCkt0x7fb1c770e000 = H->sclGetCircuit(  "" )
sclParam0x7fb1c770e006 = H->sclGetParameter( sclCkt0x7fb1c770e000 "vgs_1" )
H->sclSetAttribute( sclParam0x7fb1c770e006 "value" "0.933333333333333" )
H->sclSetResultDir( "../psf" )
H->sclRun( "all" )
sclCkt0x7fb1c770e000 = H->sclGetCircuit(  "" )
sclParam0x7fb1c770e007 = H->sclGetParameter( sclCkt0x7fb1c770e000 "vgs_1" )
H->sclSetAttribute( sclParam0x7fb1c770e007 "value" "0.966666666666667" )
H->sclSetResultDir( "../psf" )
H->sclRun( "all" )
sclCkt0x7fb1c770e000 = H->sclGetCircuit(  "" )
sclParam0x7fb1c770e008 = H->sclGetParameter( sclCkt0x7fb1c770e000 "vgs_1" )
H->sclSetAttribute( sclParam0x7fb1c770e008 "value" "1" )
H->sclSetResultDir( "../psf" )
H->sclRun( "all" )
sclCkt0x7fb1c770e000 = H->sclGetCircuit(  "" )
H->sclQuit(  )
