
Spectre (R) Circuit Simulator
Version 20.1.0.298.isr9 64bit -- 30 Jul 2021
Copyright (C) 1989-2021 Cadence Design Systems, Inc. All rights reserved worldwide. Cadence and Spectre are registered trademarks of Cadence Design Systems, Inc. All others are the property of their respective holders.

Includes RSA BSAFE(R) Cryptographic or Security Protocol Software from RSA Security, Inc.

User: stud30   Host: dell01   HostID: 89692DDB   PID: 172348
Memory  available: 277.6018 GB  physical: 404.0957 GB
Linux   : Red Hat Enterprise Linux Server release 7.9 (Maipo)
CPU Type: Intel(R) Xeon(R) Gold 6246R CPU @ 3.40GHz
        Socket: Processors [Frequency] (Hyperthreaded Processor)
        0:       0 [2384.0] ( 32 ),  2 [3665.2] ( 34 ),  4 [3868.4] ( 36 )
                 6 [3919.4] ( 38 ),  8 [3302.9] ( 40 ), 10 [3841.0] ( 42 )
                12 [2806.3] ( 44 ), 14 [3585.5] ( 46 ), 16 [3920.3] ( 48 )
                18 [3544.6] ( 50 ), 20 [3894.5] ( 52 ), 22 [3496.7] ( 54 )
                24 [3826.0] ( 56 ), 26 [3999.9] ( 58 ), 28 [3595.5] ( 60 )
                30 [3696.5] ( 62 )
        1:       1 [3993.7] ( 33 ),  3 [4054.3] ( 35 ),  5 [3784.5] ( 37 )
                 7 [3735.1] ( 39 ),  9 [3694.5] ( 41 ), 11 [3477.8] ( 43 )
                13 [3998.1] ( 45 ), 15 [3999.7] ( 47 ), 17 [3832.3] ( 49 )
                19 [2434.8] ( 51 ), 21 [3904.5] ( 53 ), 23 [1481.3] ( 55 )
                25 [3886.8] ( 57 ), 27 [3802.8] ( 59 ), 29 [1244.7] ( 61 )
                31 [3985.2] ( 63 )
        
System load averages (1min, 5min, 15min) : 0.2 %, 0.1 %, 0.1 %
Hyperthreading is enabled


Simulating `input.scs' on dell01 at 12:33:34 AM, Mon Dec 4, 2023 (process id: 172348).
Current working directory: /home/vlsidesign/stud30/simulation/inv_test/spectre/schematic/netlist
Environment variable:
    SPECTRE_DEFAULTS=-E
Command line:
    /opt/Cadence/LIBERATE211/tools.lnx86/bin/spectre -64 input.scs  \
        +escchars +log ../psf/spectre.out +inter=mpsc  \
        +mpssession=spectre1_157814_3 -format psfxl -raw ../psf  \
        +lqtimeout 900 -maxw 5 -maxn 5
spectre pid = 172348

Licensing Information:
[00:33:34.519529] Configured Lic search path (20.02-p002): /opt/Cadence/lic/Cadence.dat

Licensing Information:
[00:33:34.346280] Periodic Lic check successful

Loading /opt/Cadence/LIBERATE211/tools.lnx86/cmi/lib/64bit/5.0/libinfineon_sh.so ...
Loading /opt/Cadence/LIBERATE211/tools.lnx86/cmi/lib/64bit/5.0/libphilips_o_sh.so ...
Loading /opt/Cadence/LIBERATE211/tools.lnx86/cmi/lib/64bit/5.0/libphilips_sh.so ...
Loading /opt/Cadence/LIBERATE211/tools.lnx86/cmi/lib/64bit/5.0/libsparam_sh.so ...
Loading /opt/Cadence/LIBERATE211/tools.lnx86/cmi/lib/64bit/5.0/libstmodels_sh.so ...
Reading file:  /home/vlsidesign/stud30/simulation/inv_test/spectre/schematic/netlist/input.scs
Reading file:  /opt/Cadence/LIBERATE211/tools.lnx86/spectre/etc/configs/spectre.cfg
Reading file:  /usr/include/stdc-predef.h
Reading file:  /home/vlsidesign/assistant1/SPDK18MMRF_1833_CDS_v2.0/smic18mmrf_1P6M_200709151808/models/spectre/allModels
Reading file:  /home/vlsidesign/assistant1/SPDK18MMRF_1833_CDS_v2.0/smic18mmrf_1P6M_200709151808/models/spectre/ms018_v1p8_spe.lib
Reading file:  /home/vlsidesign/assistant1/SPDK18MMRF_1833_CDS_v2.0/smic18mmrf_1P6M_200709151808/models/spectre/ms018_v1p8_spe.mdl
Reading file:  /home/vlsidesign/assistant1/SPDK18MMRF_1833_CDS_v2.0/smic18mmrf_1P6M_200709151808/models/spectre/ms018_v1p8_res_spe.mdl
Reading file:  /home/vlsidesign/assistant1/SPDK18MMRF_1833_CDS_v2.0/smic18mmrf_1P6M_200709151808/models/spectre/ms018_v1p8_mim_spe.mdl
Reading file:  /home/vlsidesign/assistant1/SPDK18MMRF_1833_CDS_v2.0/smic18mmrf_1P6M_200709151808/models/spectre/ms018_v1p8_bjt_spe.mdl
Reading file:  /home/vlsidesign/assistant1/SPDK18MMRF_1833_CDS_v2.0/smic18mmrf_1P6M_200709151808/models/spectre/ms018_v1p8_res_spe.ckt
Reading file:  /home/vlsidesign/assistant1/SPDK18MMRF_1833_CDS_v2.0/smic18mmrf_1P6M_200709151808/models/spectre/res_rf.va
Reading link:  /opt/Cadence/LIBERATE211/tools.lnx86/spectre/etc/ahdl/constants.h
Reading file:  /opt/Cadence/LIBERATE211/tools.lnx86/spectre/etc/ahdl/constants.vams
Reading link:  /opt/Cadence/LIBERATE211/tools.lnx86/spectre/etc/ahdl/discipline.h
Reading file:  /opt/Cadence/LIBERATE211/tools.lnx86/spectre/etc/ahdl/disciplines.vams
Reading file:  /home/vlsidesign/assistant1/SPDK18MMRF_1833_CDS_v2.0/smic18mmrf_1P6M_200709151808/models/spectre/ms018_rf_v1p9_spe.lib
Reading file:  /home/vlsidesign/assistant1/SPDK18MMRF_1833_CDS_v2.0/smic18mmrf_1P6M_200709151808/models/spectre/ms018_rf_v1p9_mos_spe.ckt
Reading file:  /home/vlsidesign/assistant1/SPDK18MMRF_1833_CDS_v2.0/smic18mmrf_1P6M_200709151808/models/spectre/ms018_rf_v1p9_res_spe.ckt
Reading file:  /home/vlsidesign/assistant1/SPDK18MMRF_1833_CDS_v2.0/smic18mmrf_1P6M_200709151808/models/spectre/ms018_rf_v1p9_mim_spe.ckt
Reading file:  /home/vlsidesign/assistant1/SPDK18MMRF_1833_CDS_v2.0/smic18mmrf_1P6M_200709151808/models/spectre/ms018_rf_v1p9_var_spe.ckt
Reading file:  /home/vlsidesign/assistant1/SPDK18MMRF_1833_CDS_v2.0/smic18mmrf_1P6M_200709151808/models/spectre/ms018_rf_v1p9_spri_ind_spe.ckt
Reading file:  /home/vlsidesign/assistant1/SPDK18MMRF_1833_CDS_v2.0/smic18mmrf_1P6M_200709151808/models/spectre/ms018_rf_v1p9_diff_ind_spe.ckt
Reading file:  /home/vlsidesign/assistant1/SPDK18MMRF_1833_CDS_v2.0/smic18mmrf_1P6M_200709151808/models/spectre/ms018_rf_v1p9_3T_diff_ind_spe.ckt
Time for NDB Parsing: CPU = 190.499 ms, elapsed = 267.639 ms.
Time accumulated: CPU = 237.24 ms, elapsed = 267.645 ms.
Peak resident memory used = 74.6 Mbytes.


Warning from spectre during circuit read-in.
    WARNING (SFE-2654): VerilogA module `absrint_hdl' override primitive/(verilogA module) `absrint_hdl'.
    WARNING (SFE-2654): VerilogA module `diffres_hdl' override primitive/(verilogA module) `diffres_hdl'.
    WARNING (SFE-2654): VerilogA module `polyres_hdl' override primitive/(verilogA module) `polyres_hdl'.
    WARNING (SFE-2654): VerilogA module `rint_hdl' override primitive/(verilogA module) `rint_hdl'.

Time for Elaboration: CPU = 32.967 ms, elapsed = 16.5241 ms.
Time accumulated: CPU = 270.41 ms, elapsed = 284.269 ms.
Peak resident memory used = 81.3 Mbytes.


Warning from spectre during hierarchy flattening.
    WARNING (SPECTRE-17101): The value 'psf' specified for the 'checklimitdest' option will no longer be supported in future releases. Use 'spectre -h' to see other recommended values for the 'checklimitdest' option.


Time for EDB Visiting: CPU = 1.243 ms, elapsed = 622.988 us.
Time accumulated: CPU = 271.831 ms, elapsed = 284.979 ms.
Peak resident memory used = 82.2 Mbytes.


Global user options:
         psfversion = 1.1.0
            vabstol = 1e-06
            iabstol = 1e-12
               temp = 27
               gmin = 1e-12
             rforce = 1
           maxnotes = 5
           maxwarns = 5
             digits = 5
               cols = 80
             pivrel = 0.001
           sensfile = ../psf/sens.output
     checklimitdest = psf
               save = allpub
             reltol = 0.001
               tnom = 27
             scalem = 1
              scale = 1

Scoped user options:

Circuit inventory:
              nodes 3
            bsim3v3 2     
          capacitor 1     
            vsource 2     

Analysis and control statement inventory:
                 ac 1     
                 dc 2     
               info 8     
               tran 1     

Output statements:
             .probe 0     
           .measure 0     
               save 0     

Time for parsing: CPU = 4.184 ms, elapsed = 2.30503 ms.
Time accumulated: CPU = 276.17 ms, elapsed = 287.362 ms.
Peak resident memory used = 83.6 Mbytes.

~~~~~~~~~~~~~~~~~~~~~~
Pre-Simulation Summary
~~~~~~~~~~~~~~~~~~~~~~
~~~~~~~~~~~~~~~~~~~~~~
Entering remote command mode using MPSC service (spectre, ipi, v0.0, spectre1_157814_3, ).

******************
DC Analysis `dcOp'
******************

Opening the PSF file ../psf/dcOp.dc ...
Important parameter values:
    reltol = 1e-03
    abstol(V) = 1 uV
    abstol(I) = 1 pA
    temp = 27 C
    tnom = 27 C
    tempeffects = all
    gmindc = 1 pS

Maximum value achieved for any signal of each quantity: 
V: V(vdd!) = 1.8 V
I: I(V0:p) = 80.67 uA
Convergence achieved in 2 iterations.
DC simulation time: CPU = 3.282 ms, elapsed = 1.68395 ms.
Total time required for dc analysis `dcOp': CPU = 3.379 ms, elapsed = 1.72806 ms.
Time accumulated: CPU = 307.715 ms, elapsed = 312.251 ms.
Peak resident memory used = 85.5 Mbytes.

dcOpInfo: writing operating point information to rawfile.

Opening the PSF file ../psf/dcOpInfo.info ...

**********************************
DC Analysis `dc': vin = (0 -> 1.8)
**********************************

Opening the PSF file ../psf/dc.dc ...
Important parameter values:
    reltol = 1e-03
    abstol(V) = 1 uV
    abstol(I) = 1 pA
    temp = 27 C
    tnom = 27 C
    tempeffects = all
    gmindc = 1 pS
dc-0: writing operating point information to rawfile.

Opening the PSF file ../psf/dc-0.info ...
dc-1: writing operating point information to rawfile.

Opening the PSF file ../psf/dc-1.info ...
dc-2: writing operating point information to rawfile.

Opening the PSF file ../psf/dc-2.info ...
dc-3: writing operating point information to rawfile.

Opening the PSF file ../psf/dc-3.info ...
dc-4: writing operating point information to rawfile.

Opening the PSF file ../psf/dc-4.info ...
dc-5: writing operating point information to rawfile.

Opening the PSF file ../psf/dc-5.info ...
dc-6: writing operating point information to rawfile.

Opening the PSF file ../psf/dc-6.info ...
dc-7: writing operating point information to rawfile.

Opening the PSF file ../psf/dc-7.info ...
dc-8: writing operating point information to rawfile.

Opening the PSF file ../psf/dc-8.info ...
dc-9: writing operating point information to rawfile.

Opening the PSF file ../psf/dc-9.info ...
dc-10: writing operating point information to rawfile.

Opening the PSF file ../psf/dc-10.info ...
dc-11: writing operating point information to rawfile.

Opening the PSF file ../psf/dc-11.info ...
dc-12: writing operating point information to rawfile.

Opening the PSF file ../psf/dc-12.info ...
dc-13: writing operating point information to rawfile.

Opening the PSF file ../psf/dc-13.info ...
dc-14: writing operating point information to rawfile.

Opening the PSF file ../psf/dc-14.info ...
dc-15: writing operating point information to rawfile.

Opening the PSF file ../psf/dc-15.info ...
dc-16: writing operating point information to rawfile.

Opening the PSF file ../psf/dc-16.info ...
dc-17: writing operating point information to rawfile.

Opening the PSF file ../psf/dc-17.info ...
dc-18: writing operating point information to rawfile.

Opening the PSF file ../psf/dc-18.info ...
dc-19: writing operating point information to rawfile.

Opening the PSF file ../psf/dc-19.info ...
dc-20: writing operating point information to rawfile.

Opening the PSF file ../psf/dc-20.info ...
dc-21: writing operating point information to rawfile.

Opening the PSF file ../psf/dc-21.info ...
dc-22: writing operating point information to rawfile.

Opening the PSF file ../psf/dc-22.info ...
dc-23: writing operating point information to rawfile.

Opening the PSF file ../psf/dc-23.info ...
dc-24: writing operating point information to rawfile.

Opening the PSF file ../psf/dc-24.info ...
dc-25: writing operating point information to rawfile.

Opening the PSF file ../psf/dc-25.info ...
dc-26: writing operating point information to rawfile.

Opening the PSF file ../psf/dc-26.info ...
dc-27: writing operating point information to rawfile.

Opening the PSF file ../psf/dc-27.info ...
dc-28: writing operating point information to rawfile.

Opening the PSF file ../psf/dc-28.info ...
dc-29: writing operating point information to rawfile.

Opening the PSF file ../psf/dc-29.info ...
dc-30: writing operating point information to rawfile.

Opening the PSF file ../psf/dc-30.info ...
dc-31: writing operating point information to rawfile.

Opening the PSF file ../psf/dc-31.info ...
dc-32: writing operating point information to rawfile.

Opening the PSF file ../psf/dc-32.info ...
dc-33: writing operating point information to rawfile.

Opening the PSF file ../psf/dc-33.info ...
dc-34: writing operating point information to rawfile.

Opening the PSF file ../psf/dc-34.info ...
dc-35: writing operating point information to rawfile.

Opening the PSF file ../psf/dc-35.info ...
dc-36: writing operating point information to rawfile.

Opening the PSF file ../psf/dc-36.info ...
dc-37: writing operating point information to rawfile.

Opening the PSF file ../psf/dc-37.info ...
dc-38: writing operating point information to rawfile.

Opening the PSF file ../psf/dc-38.info ...
dc-39: writing operating point information to rawfile.

Opening the PSF file ../psf/dc-39.info ...
dc-40: writing operating point information to rawfile.

Opening the PSF file ../psf/dc-40.info ...
dc-41: writing operating point information to rawfile.

Opening the PSF file ../psf/dc-41.info ...
dc-42: writing operating point information to rawfile.

Opening the PSF file ../psf/dc-42.info ...
dc-43: writing operating point information to rawfile.

Opening the PSF file ../psf/dc-43.info ...
dc-44: writing operating point information to rawfile.

Opening the PSF file ../psf/dc-44.info ...
    dc: vin = 45e-03       (2.5 %), step = 1e-03       (55.6 m%)
dc-45: writing operating point information to rawfile.

Opening the PSF file ../psf/dc-45.info ...
    dc: vin = 46e-03      (2.56 %), step = 1e-03       (55.6 m%)
dc-46: writing operating point information to rawfile.

Opening the PSF file ../psf/dc-46.info ...
    dc: vin = 47e-03      (2.61 %), step = 1e-03       (55.6 m%)
dc-47: writing operating point information to rawfile.

Opening the PSF file ../psf/dc-47.info ...
    dc: vin = 48e-03      (2.67 %), step = 1e-03       (55.6 m%)
dc-48: writing operating point information to rawfile.

Opening the PSF file ../psf/dc-48.info ...
    dc: vin = 49e-03      (2.72 %), step = 1e-03       (55.6 m%)
dc-49: writing operating point information to rawfile.

Opening the PSF file ../psf/dc-49.info ...
    dc: vin = 50e-03      (2.78 %), step = 1e-03       (55.6 m%)
dc-50: writing operating point information to rawfile.

Opening the PSF file ../psf/dc-50.info ...
    dc: vin = 51e-03      (2.83 %), step = 1e-03       (55.6 m%)
dc-51: writing operating point information to rawfile.

Opening the PSF file ../psf/dc-51.info ...
    dc: vin = 52e-03      (2.89 %), step = 1e-03       (55.6 m%)
dc-52: writing operating point information to rawfile.

Opening the PSF file ../psf/dc-52.info ...
    dc: vin = 53e-03      (2.94 %), step = 1e-03       (55.6 m%)
dc-53: writing operating point information to rawfile.

Opening the PSF file ../psf/dc-53.info ...
    dc: vin = 54e-03         (3 %), step = 1e-03       (55.6 m%)
dc-54: writing operating point information to rawfile.

Opening the PSF file ../psf/dc-54.info ...
    dc: vin = 55e-03      (3.06 %), step = 1e-03       (55.6 m%)
dc-55: writing operating point information to rawfile.

Opening the PSF file ../psf/dc-55.info ...
    dc: vin = 56e-03      (3.11 %), step = 1e-03       (55.6 m%)
dc-56: writing operating point information to rawfile.

Opening the PSF file ../psf/dc-56.info ...
    dc: vin = 57e-03      (3.17 %), step = 1e-03       (55.6 m%)
dc-57: writing operating point information to rawfile.

Opening the PSF file ../psf/dc-57.info ...
    dc: vin = 58e-03      (3.22 %), step = 1e-03       (55.6 m%)
dc-58: writing operating point information to rawfile.

Opening the PSF file ../psf/dc-58.info ...
    dc: vin = 59e-03      (3.28 %), step = 1e-03       (55.6 m%)
dc-59: writing operating point information to rawfile.

Opening the PSF file ../psf/dc-59.info ...
    dc: vin = 60e-03      (3.33 %), step = 1e-03       (55.6 m%)
dc-60: writing operating point information to rawfile.

Opening the PSF file ../psf/dc-60.info ...
    dc: vin = 61e-03      (3.39 %), step = 1e-03       (55.6 m%)
dc-61: writing operating point information to rawfile.

Opening the PSF file ../psf/dc-61.info ...
    dc: vin = 62e-03      (3.44 %), step = 1e-03       (55.6 m%)
dc-62: writing operating point information to rawfile.

Opening the PSF file ../psf/dc-62.info ...
    dc: vin = 63e-03       (3.5 %), step = 1e-03       (55.6 m%)
dc-63: writing operating point information to rawfile.

Opening the PSF file ../psf/dc-63.info ...
    dc: vin = 64e-03      (3.56 %), step = 1e-03       (55.6 m%)
dc-64: writing operating point information to rawfile.

Opening the PSF file ../psf/dc-64.info ...
    dc: vin = 65e-03      (3.61 %), step = 1e-03       (55.6 m%)
dc-65: writing operating point information to rawfile.

Opening the PSF file ../psf/dc-65.info ...
    dc: vin = 66e-03      (3.67 %), step = 1e-03       (55.6 m%)
dc-66: writing operating point information to rawfile.

Opening the PSF file ../psf/dc-66.info ...
    dc: vin = 67e-03      (3.72 %), step = 1e-03       (55.6 m%)
dc-67: writing operating point information to rawfile.

Opening the PSF file ../psf/dc-67.info ...
    dc: vin = 68e-03      (3.78 %), step = 1e-03       (55.6 m%)
dc-68: writing operating point information to rawfile.

Opening the PSF file ../psf/dc-68.info ...
    dc: vin = 69e-03      (3.83 %), step = 1e-03       (55.6 m%)
dc-69: writing operating point information to rawfile.

Opening the PSF file ../psf/dc-69.info ...
    dc: vin = 70e-03      (3.89 %), step = 1e-03       (55.6 m%)
dc-70: writing operating point information to rawfile.

Opening the PSF file ../psf/dc-70.info ...
    dc: vin = 71e-03      (3.94 %), step = 1e-03       (55.6 m%)
dc-71: writing operating point information to rawfile.

Opening the PSF file ../psf/dc-71.info ...
    dc: vin = 72e-03         (4 %), step = 1e-03       (55.6 m%)
dc-72: writing operating point information to rawfile.

Opening the PSF file ../psf/dc-72.info ...
    dc: vin = 73e-03      (4.06 %), step = 1e-03       (55.6 m%)
dc-73: writing operating point information to rawfile.

Opening the PSF file ../psf/dc-73.info ...
    dc: vin = 74e-03      (4.11 %), step = 1e-03       (55.6 m%)
dc-74: writing operating point information to rawfile.

Opening the PSF file ../psf/dc-74.info ...
    dc: vin = 75e-03      (4.17 %), step = 1e-03       (55.6 m%)
dc-75: writing operating point information to rawfile.

Opening the PSF file ../psf/dc-75.info ...
    dc: vin = 76e-03      (4.22 %), step = 1e-03       (55.6 m%)
dc-76: writing operating point information to rawfile.

Opening the PSF file ../psf/dc-76.info ...
    dc: vin = 77e-03      (4.28 %), step = 1e-03       (55.6 m%)
dc-77: writing operating point information to rawfile.

Opening the PSF file ../psf/dc-77.info ...
    dc: vin = 78e-03      (4.33 %), step = 1e-03       (55.6 m%)
dc-78: writing operating point information to rawfile.

Opening the PSF file ../psf/dc-78.info ...
    dc: vin = 79e-03      (4.39 %), step = 1e-03       (55.6 m%)
dc-79: writing operating point information to rawfile.

Opening the PSF file ../psf/dc-79.info ...
    dc: vin = 80e-03      (4.44 %), step = 1e-03       (55.6 m%)
dc-80: writing operating point information to rawfile.

Opening the PSF file ../psf/dc-80.info ...
    dc: vin = 81e-03       (4.5 %), step = 1e-03       (55.6 m%)
dc-81: writing operating point information to rawfile.

Opening the PSF file ../psf/dc-81.info ...
    dc: vin = 82e-03      (4.56 %), step = 1e-03       (55.6 m%)
dc-82: writing operating point information to rawfile.

Opening the PSF file ../psf/dc-82.info ...
    dc: vin = 83e-03      (4.61 %), step = 1e-03       (55.6 m%)
dc-83: writing operating point information to rawfile.

Opening the PSF file ../psf/dc-83.info ...
    dc: vin = 84e-03      (4.67 %), step = 1e-03       (55.6 m%)
dc-84: writing operating point information to rawfile.

Opening the PSF file ../psf/dc-84.info ...
    dc: vin = 85e-03      (4.72 %), step = 1e-03       (55.6 m%)
dc-85: writing operating point information to rawfile.

Opening the PSF file ../psf/dc-85.info ...
    dc: vin = 86e-03      (4.78 %), step = 1e-03       (55.6 m%)
dc-86: writing operating point information to rawfile.

Opening the PSF file ../psf/dc-86.info ...
    dc: vin = 87e-03      (4.83 %), step = 1e-03       (55.6 m%)
dc-87: writing operating point information to rawfile.

Opening the PSF file ../psf/dc-87.info ...
    dc: vin = 88e-03      (4.89 %), step = 1e-03       (55.6 m%)
dc-88: writing operating point information to rawfile.

Opening the PSF file ../psf/dc-88.info ...
    dc: vin = 89e-03      (4.94 %), step = 1e-03       (55.6 m%)
dc-89: writing operating point information to rawfile.

Opening the PSF file ../psf/dc-89.info ...
    dc: vin = 90e-03         (5 %), step = 1e-03       (55.6 m%)
dc-90: writing operating point information to rawfile.

Opening the PSF file ../psf/dc-90.info ...
    dc: vin = 91e-03      (5.06 %), step = 1e-03       (55.6 m%)
dc-91: writing operating point information to rawfile.

Opening the PSF file ../psf/dc-91.info ...
    dc: vin = 92e-03      (5.11 %), step = 1e-03       (55.6 m%)
dc-92: writing operating point information to rawfile.

Opening the PSF file ../psf/dc-92.info ...
    dc: vin = 93e-03      (5.17 %), step = 1e-03       (55.6 m%)
dc-93: writing operating point information to rawfile.

Opening the PSF file ../psf/dc-93.info ...
    dc: vin = 94e-03      (5.22 %), step = 1e-03       (55.6 m%)
dc-94: writing operating point information to rawfile.

Opening the PSF file ../psf/dc-94.info ...
    dc: vin = 95e-03      (5.28 %), step = 1e-03       (55.6 m%)
dc-95: writing operating point information to rawfile.

Opening the PSF file ../psf/dc-95.info ...
    dc: vin = 96e-03      (5.33 %), step = 1e-03       (55.6 m%)
dc-96: writing operating point information to rawfile.

Opening the PSF file ../psf/dc-96.info ...
    dc: vin = 97e-03      (5.39 %), step = 1e-03       (55.6 m%)
dc-97: writing operating point information to rawfile.

Opening the PSF file ../psf/dc-97.info ...
    dc: vin = 98e-03      (5.44 %), step = 1e-03       (55.6 m%)
dc-98: writing operating point information to rawfile.

Opening the PSF file ../psf/dc-98.info ...
    dc: vin = 99e-03       (5.5 %), step = 1e-03       (55.6 m%)
dc-99: writing operating point information to rawfile.

Opening the PSF file ../psf/dc-99.info ...
    dc: vin = 100e-03     (5.56 %), step = 1e-03       (55.6 m%)
dc-100: writing operating point information to rawfile.

Opening the PSF file ../psf/dc-100.info ...
    dc: vin = 101e-03     (5.61 %), step = 1e-03       (55.6 m%)
dc-101: writing operating point information to rawfile.

Opening the PSF file ../psf/dc-101.info ...
    dc: vin = 102e-03     (5.67 %), step = 1e-03       (55.6 m%)
dc-102: writing operating point information to rawfile.

Opening the PSF file ../psf/dc-102.info ...
    dc: vin = 103e-03     (5.72 %), step = 1e-03       (55.6 m%)
dc-103: writing operating point information to rawfile.

Opening the PSF file ../psf/dc-103.info ...
    dc: vin = 104e-03     (5.78 %), step = 1e-03       (55.6 m%)
dc-104: writing operating point information to rawfile.

Opening the PSF file ../psf/dc-104.info ...
    dc: vin = 105e-03     (5.83 %), step = 1e-03       (55.6 m%)
dc-105: writing operating point information to rawfile.

Opening the PSF file ../psf/dc-105.info ...
    dc: vin = 106e-03     (5.89 %), step = 1e-03       (55.6 m%)
dc-106: writing operating point information to rawfile.

Opening the PSF file ../psf/dc-106.info ...
    dc: vin = 107e-03     (5.94 %), step = 1e-03       (55.6 m%)
dc-107: writing operating point information to rawfile.

Opening the PSF file ../psf/dc-107.info ...
    dc: vin = 108e-03        (6 %), step = 1e-03       (55.6 m%)
dc-108: writing operating point information to rawfile.

Opening the PSF file ../psf/dc-108.info ...
    dc: vin = 109e-03     (6.06 %), step = 1e-03       (55.6 m%)
dc-109: writing operating point information to rawfile.

Opening the PSF file ../psf/dc-109.info ...
    dc: vin = 110e-03     (6.11 %), step = 1e-03       (55.6 m%)
dc-110: writing operating point information to rawfile.

Opening the PSF file ../psf/dc-110.info ...
    dc: vin = 111e-03     (6.17 %), step = 1e-03       (55.6 m%)
dc-111: writing operating point information to rawfile.

Opening the PSF file ../psf/dc-111.info ...
    dc: vin = 112e-03     (6.22 %), step = 1e-03       (55.6 m%)
dc-112: writing operating point information to rawfile.

Opening the PSF file ../psf/dc-112.info ...
    dc: vin = 113e-03     (6.28 %), step = 1e-03       (55.6 m%)
dc-113: writing operating point information to rawfile.

Opening the PSF file ../psf/dc-113.info ...
    dc: vin = 114e-03     (6.33 %), step = 1e-03       (55.6 m%)
dc-114: writing operating point information to rawfile.

Opening the PSF file ../psf/dc-114.info ...
    dc: vin = 115e-03     (6.39 %), step = 1e-03       (55.6 m%)
dc-115: writing operating point information to rawfile.

Opening the PSF file ../psf/dc-115.info ...
    dc: vin = 116e-03     (6.44 %), step = 1e-03       (55.6 m%)
dc-116: writing operating point information to rawfile.

Opening the PSF file ../psf/dc-116.info ...
    dc: vin = 117e-03      (6.5 %), step = 1e-03       (55.6 m%)
dc-117: writing operating point information to rawfile.

Opening the PSF file ../psf/dc-117.info ...
    dc: vin = 118e-03     (6.56 %), step = 1e-03       (55.6 m%)
dc-118: writing operating point information to rawfile.

Opening the PSF file ../psf/dc-118.info ...
    dc: vin = 119e-03     (6.61 %), step = 1e-03       (55.6 m%)
dc-119: writing operating point information to rawfile.

Opening the PSF file ../psf/dc-119.info ...
    dc: vin = 120e-03     (6.67 %), step = 1e-03       (55.6 m%)
dc-120: writing operating point information to rawfile.

Opening the PSF file ../psf/dc-120.info ...
    dc: vin = 121e-03     (6.72 %), step = 1e-03       (55.6 m%)
dc-121: writing operating point information to rawfile.

Opening the PSF file ../psf/dc-121.info ...
    dc: vin = 122e-03     (6.78 %), step = 1e-03       (55.6 m%)
dc-122: writing operating point information to rawfile.

Opening the PSF file ../psf/dc-122.info ...
    dc: vin = 123e-03     (6.83 %), step = 1e-03       (55.6 m%)
dc-123: writing operating point information to rawfile.

Opening the PSF file ../psf/dc-123.info ...
    dc: vin = 124e-03     (6.89 %), step = 1e-03       (55.6 m%)
dc-124: writing operating point information to rawfile.

Opening the PSF file ../psf/dc-124.info ...
    dc: vin = 125e-03     (6.94 %), step = 1e-03       (55.6 m%)
dc-125: writing operating point information to rawfile.

Opening the PSF file ../psf/dc-125.info ...
    dc: vin = 126e-03        (7 %), step = 1e-03       (55.6 m%)
dc-126: writing operating point information to rawfile.

Opening the PSF file ../psf/dc-126.info ...
    dc: vin = 127e-03     (7.06 %), step = 1e-03       (55.6 m%)
dc-127: writing operating point information to rawfile.

Opening the PSF file ../psf/dc-127.info ...
    dc: vin = 128e-03     (7.11 %), step = 1e-03       (55.6 m%)
dc-128: writing operating point information to rawfile.

Opening the PSF file ../psf/dc-128.info ...
    dc: vin = 129e-03     (7.17 %), step = 1e-03       (55.6 m%)
dc-129: writing operating point information to rawfile.

Opening the PSF file ../psf/dc-129.info ...
    dc: vin = 130e-03     (7.22 %), step = 1e-03       (55.6 m%)
dc-130: writing operating point information to rawfile.

Opening the PSF file ../psf/dc-130.info ...
    dc: vin = 131e-03     (7.28 %), step = 1e-03       (55.6 m%)
dc-131: writing operating point information to rawfile.

Opening the PSF file ../psf/dc-131.info ...
    dc: vin = 132e-03     (7.33 %), step = 1e-03       (55.6 m%)
dc-132: writing operating point information to rawfile.

Opening the PSF file ../psf/dc-132.info ...
    dc: vin = 133e-03     (7.39 %), step = 1e-03       (55.6 m%)
dc-133: writing operating point information to rawfile.

Opening the PSF file ../psf/dc-133.info ...
    dc: vin = 134e-03     (7.44 %), step = 1e-03       (55.6 m%)
dc-134: writing operating point information to rawfile.

Opening the PSF file ../psf/dc-134.info ...
    dc: vin = 135e-03      (7.5 %), step = 1e-03       (55.6 m%)
dc-135: writing operating point information to rawfile.

Opening the PSF file ../psf/dc-135.info ...
    dc: vin = 136e-03     (7.56 %), step = 1e-03       (55.6 m%)
dc-136: writing operating point information to rawfile.

Opening the PSF file ../psf/dc-136.info ...
    dc: vin = 137e-03     (7.61 %), step = 1e-03       (55.6 m%)
dc-137: writing operating point information to rawfile.

Opening the PSF file ../psf/dc-137.info ...
    dc: vin = 138e-03     (7.67 %), step = 1e-03       (55.6 m%)
dc-138: writing operating point information to rawfile.

Opening the PSF file ../psf/dc-138.info ...
    dc: vin = 139e-03     (7.72 %), step = 1e-03       (55.6 m%)
dc-139: writing operating point information to rawfile.

Opening the PSF file ../psf/dc-139.info ...
    dc: vin = 140e-03     (7.78 %), step = 1e-03       (55.6 m%)
dc-140: writing operating point information to rawfile.

Opening the PSF file ../psf/dc-140.info ...
    dc: vin = 141e-03     (7.83 %), step = 1e-03       (55.6 m%)
dc-141: writing operating point information to rawfile.

Opening the PSF file ../psf/dc-141.info ...
    dc: vin = 142e-03     (7.89 %), step = 1e-03       (55.6 m%)
dc-142: writing operating point information to rawfile.

Opening the PSF file ../psf/dc-142.info ...
    dc: vin = 143e-03     (7.94 %), step = 1e-03       (55.6 m%)
dc-143: writing operating point information to rawfile.

Opening the PSF file ../psf/dc-143.info ...
    dc: vin = 144e-03        (8 %), step = 1e-03       (55.6 m%)
dc-144: writing operating point information to rawfile.

Opening the PSF file ../psf/dc-144.info ...
    dc: vin = 145e-03     (8.06 %), step = 1e-03       (55.6 m%)
dc-145: writing operating point information to rawfile.

Opening the PSF file ../psf/dc-145.info ...
    dc: vin = 146e-03     (8.11 %), step = 1e-03       (55.6 m%)
dc-146: writing operating point information to rawfile.

Opening the PSF file ../psf/dc-146.info ...
    dc: vin = 147e-03     (8.17 %), step = 1e-03       (55.6 m%)
dc-147: writing operating point information to rawfile.

Opening the PSF file ../psf/dc-147.info ...
    dc: vin = 148e-03     (8.22 %), step = 1e-03       (55.6 m%)
dc-148: writing operating point information to rawfile.

Opening the PSF file ../psf/dc-148.info ...
    dc: vin = 149e-03     (8.28 %), step = 1e-03       (55.6 m%)
dc-149: writing operating point information to rawfile.

Opening the PSF file ../psf/dc-149.info ...
    dc: vin = 150e-03     (8.33 %), step = 1e-03       (55.6 m%)
dc-150: writing operating point information to rawfile.

Opening the PSF file ../psf/dc-150.info ...
    dc: vin = 151e-03     (8.39 %), step = 1e-03       (55.6 m%)
dc-151: writing operating point information to rawfile.

Opening the PSF file ../psf/dc-151.info ...
    dc: vin = 152e-03     (8.44 %), step = 1e-03       (55.6 m%)
dc-152: writing operating point information to rawfile.

Opening the PSF file ../psf/dc-152.info ...
    dc: vin = 153e-03      (8.5 %), step = 1e-03       (55.6 m%)
dc-153: writing operating point information to rawfile.

Opening the PSF file ../psf/dc-153.info ...
    dc: vin = 154e-03     (8.56 %), step = 1e-03       (55.6 m%)
dc-154: writing operating point information to rawfile.

Opening the PSF file ../psf/dc-154.info ...
    dc: vin = 155e-03     (8.61 %), step = 1e-03       (55.6 m%)
dc-155: writing operating point information to rawfile.

Opening the PSF file ../psf/dc-155.info ...
    dc: vin = 156e-03     (8.67 %), step = 1e-03       (55.6 m%)
dc-156: writing operating point information to rawfile.

Opening the PSF file ../psf/dc-156.info ...
    dc: vin = 157e-03     (8.72 %), step = 1e-03       (55.6 m%)
dc-157: writing operating point information to rawfile.

Opening the PSF file ../psf/dc-157.info ...
    dc: vin = 158e-03     (8.78 %), step = 1e-03       (55.6 m%)
dc-158: writing operating point information to rawfile.

Opening the PSF file ../psf/dc-158.info ...
    dc: vin = 159e-03     (8.83 %), step = 1e-03       (55.6 m%)
dc-159: writing operating point information to rawfile.

Opening the PSF file ../psf/dc-159.info ...
    dc: vin = 160e-03     (8.89 %), step = 1e-03       (55.6 m%)
dc-160: writing operating point information to rawfile.

Opening the PSF file ../psf/dc-160.info ...
    dc: vin = 161e-03     (8.94 %), step = 1e-03       (55.6 m%)
dc-161: writing operating point information to rawfile.

Opening the PSF file ../psf/dc-161.info ...
    dc: vin = 162e-03        (9 %), step = 1e-03       (55.6 m%)
dc-162: writing operating point information to rawfile.

Opening the PSF file ../psf/dc-162.info ...
    dc: vin = 163e-03     (9.06 %), step = 1e-03       (55.6 m%)
dc-163: writing operating point information to rawfile.

Opening the PSF file ../psf/dc-163.info ...
    dc: vin = 164e-03     (9.11 %), step = 1e-03       (55.6 m%)
dc-164: writing operating point information to rawfile.

Opening the PSF file ../psf/dc-164.info ...
    dc: vin = 165e-03     (9.17 %), step = 1e-03       (55.6 m%)
dc-165: writing operating point information to rawfile.

Opening the PSF file ../psf/dc-165.info ...
    dc: vin = 166e-03     (9.22 %), step = 1e-03       (55.6 m%)
dc-166: writing operating point information to rawfile.

Opening the PSF file ../psf/dc-166.info ...
    dc: vin = 167e-03     (9.28 %), step = 1e-03       (55.6 m%)
dc-167: writing operating point information to rawfile.

Opening the PSF file ../psf/dc-167.info ...
    dc: vin = 168e-03     (9.33 %), step = 1e-03       (55.6 m%)
dc-168: writing operating point information to rawfile.

Opening the PSF file ../psf/dc-168.info ...
    dc: vin = 169e-03     (9.39 %), step = 1e-03       (55.6 m%)
dc-169: writing operating point information to rawfile.

Opening the PSF file ../psf/dc-169.info ...
    dc: vin = 170e-03     (9.44 %), step = 1e-03       (55.6 m%)
dc-170: writing operating point information to rawfile.

Opening the PSF file ../psf/dc-170.info ...
    dc: vin = 171e-03      (9.5 %), step = 1e-03       (55.6 m%)
dc-171: writing operating point information to rawfile.

Opening the PSF file ../psf/dc-171.info ...
    dc: vin = 172e-03     (9.56 %), step = 1e-03       (55.6 m%)
dc-172: writing operating point information to rawfile.

Opening the PSF file ../psf/dc-172.info ...
    dc: vin = 173e-03     (9.61 %), step = 1e-03       (55.6 m%)
dc-173: writing operating point information to rawfile.

Opening the PSF file ../psf/dc-173.info ...
    dc: vin = 174e-03     (9.67 %), step = 1e-03       (55.6 m%)
dc-174: writing operating point information to rawfile.

Opening the PSF file ../psf/dc-174.info ...
    dc: vin = 175e-03     (9.72 %), step = 1e-03       (55.6 m%)
dc-175: writing operating point information to rawfile.

Opening the PSF file ../psf/dc-175.info ...
    dc: vin = 176e-03     (9.78 %), step = 1e-03       (55.6 m%)
dc-176: writing operating point information to rawfile.

Opening the PSF file ../psf/dc-176.info ...
    dc: vin = 177e-03     (9.83 %), step = 1e-03       (55.6 m%)
dc-177: writing operating point information to rawfile.

Opening the PSF file ../psf/dc-177.info ...
    dc: vin = 178e-03     (9.89 %), step = 1e-03       (55.6 m%)
dc-178: writing operating point information to rawfile.

Opening the PSF file ../psf/dc-178.info ...
    dc: vin = 179e-03     (9.94 %), step = 1e-03       (55.6 m%)
dc-179: writing operating point information to rawfile.

Opening the PSF file ../psf/dc-179.info ...
    dc: vin = 180e-03       (10 %), step = 1e-03       (55.6 m%)
dc-180: writing operating point information to rawfile.

Opening the PSF file ../psf/dc-180.info ...
    dc: vin = 181e-03     (10.1 %), step = 1e-03       (55.6 m%)
dc-181: writing operating point information to rawfile.

Opening the PSF file ../psf/dc-181.info ...
    dc: vin = 182e-03     (10.1 %), step = 1e-03       (55.6 m%)
dc-182: writing operating point information to rawfile.

Opening the PSF file ../psf/dc-182.info ...
    dc: vin = 183e-03     (10.2 %), step = 1e-03       (55.6 m%)
dc-183: writing operating point information to rawfile.

Opening the PSF file ../psf/dc-183.info ...
    dc: vin = 184e-03     (10.2 %), step = 1e-03       (55.6 m%)
dc-184: writing operating point information to rawfile.

Opening the PSF file ../psf/dc-184.info ...
    dc: vin = 185e-03     (10.3 %), step = 1e-03       (55.6 m%)
dc-185: writing operating point information to rawfile.

Opening the PSF file ../psf/dc-185.info ...
    dc: vin = 186e-03     (10.3 %), step = 1e-03       (55.6 m%)
dc-186: writing operating point information to rawfile.

Opening the PSF file ../psf/dc-186.info ...
    dc: vin = 187e-03     (10.4 %), step = 1e-03       (55.6 m%)
dc-187: writing operating point information to rawfile.

Opening the PSF file ../psf/dc-187.info ...
    dc: vin = 188e-03     (10.4 %), step = 1e-03       (55.6 m%)
dc-188: writing operating point information to rawfile.

Opening the PSF file ../psf/dc-188.info ...
    dc: vin = 189e-03     (10.5 %), step = 1e-03       (55.6 m%)
dc-189: writing operating point information to rawfile.

Opening the PSF file ../psf/dc-189.info ...
    dc: vin = 190e-03     (10.6 %), step = 1e-03       (55.6 m%)
dc-190: writing operating point information to rawfile.

Opening the PSF file ../psf/dc-190.info ...
    dc: vin = 191e-03     (10.6 %), step = 1e-03       (55.6 m%)
dc-191: writing operating point information to rawfile.

Opening the PSF file ../psf/dc-191.info ...
    dc: vin = 192e-03     (10.7 %), step = 1e-03       (55.6 m%)
dc-192: writing operating point information to rawfile.

Opening the PSF file ../psf/dc-192.info ...
    dc: vin = 193e-03     (10.7 %), step = 1e-03       (55.6 m%)
dc-193: writing operating point information to rawfile.

Opening the PSF file ../psf/dc-193.info ...
    dc: vin = 194e-03     (10.8 %), step = 1e-03       (55.6 m%)
dc-194: writing operating point information to rawfile.

Opening the PSF file ../psf/dc-194.info ...
    dc: vin = 195e-03     (10.8 %), step = 1e-03       (55.6 m%)
dc-195: writing operating point information to rawfile.

Opening the PSF file ../psf/dc-195.info ...
    dc: vin = 196e-03     (10.9 %), step = 1e-03       (55.6 m%)
dc-196: writing operating point information to rawfile.

Opening the PSF file ../psf/dc-196.info ...
    dc: vin = 197e-03     (10.9 %), step = 1e-03       (55.6 m%)
dc-197: writing operating point information to rawfile.

Opening the PSF file ../psf/dc-197.info ...
    dc: vin = 198e-03       (11 %), step = 1e-03       (55.6 m%)
dc-198: writing operating point information to rawfile.

Opening the PSF file ../psf/dc-198.info ...
    dc: vin = 199e-03     (11.1 %), step = 1e-03       (55.6 m%)
dc-199: writing operating point information to rawfile.

Opening the PSF file ../psf/dc-199.info ...
    dc: vin = 200e-03     (11.1 %), step = 1e-03       (55.6 m%)
dc-200: writing operating point information to rawfile.

Opening the PSF file ../psf/dc-200.info ...
    dc: vin = 201e-03     (11.2 %), step = 1e-03       (55.6 m%)
dc-201: writing operating point information to rawfile.

Opening the PSF file ../psf/dc-201.info ...
    dc: vin = 202e-03     (11.2 %), step = 1e-03       (55.6 m%)
dc-202: writing operating point information to rawfile.

Opening the PSF file ../psf/dc-202.info ...
    dc: vin = 203e-03     (11.3 %), step = 1e-03       (55.6 m%)
dc-203: writing operating point information to rawfile.

Opening the PSF file ../psf/dc-203.info ...
    dc: vin = 204e-03     (11.3 %), step = 1e-03       (55.6 m%)
dc-204: writing operating point information to rawfile.

Opening the PSF file ../psf/dc-204.info ...
    dc: vin = 205e-03     (11.4 %), step = 1e-03       (55.6 m%)
dc-205: writing operating point information to rawfile.

Opening the PSF file ../psf/dc-205.info ...
    dc: vin = 206e-03     (11.4 %), step = 1e-03       (55.6 m%)
dc-206: writing operating point information to rawfile.

Opening the PSF file ../psf/dc-206.info ...
    dc: vin = 207e-03     (11.5 %), step = 1e-03       (55.6 m%)
dc-207: writing operating point information to rawfile.

Opening the PSF file ../psf/dc-207.info ...
    dc: vin = 208e-03     (11.6 %), step = 1e-03       (55.6 m%)
dc-208: writing operating point information to rawfile.

Opening the PSF file ../psf/dc-208.info ...
    dc: vin = 209e-03     (11.6 %), step = 1e-03       (55.6 m%)
dc-209: writing operating point information to rawfile.

Opening the PSF file ../psf/dc-209.info ...
    dc: vin = 210e-03     (11.7 %), step = 1e-03       (55.6 m%)
dc-210: writing operating point information to rawfile.

Opening the PSF file ../psf/dc-210.info ...
    dc: vin = 211e-03     (11.7 %), step = 1e-03       (55.6 m%)
dc-211: writing operating point information to rawfile.

Opening the PSF file ../psf/dc-211.info ...
    dc: vin = 212e-03     (11.8 %), step = 1e-03       (55.6 m%)
dc-212: writing operating point information to rawfile.

Opening the PSF file ../psf/dc-212.info ...
    dc: vin = 213e-03     (11.8 %), step = 1e-03       (55.6 m%)
dc-213: writing operating point information to rawfile.

Opening the PSF file ../psf/dc-213.info ...
    dc: vin = 214e-03     (11.9 %), step = 1e-03       (55.6 m%)
dc-214: writing operating point information to rawfile.

Opening the PSF file ../psf/dc-214.info ...
    dc: vin = 215e-03     (11.9 %), step = 1e-03       (55.6 m%)
dc-215: writing operating point information to rawfile.

Opening the PSF file ../psf/dc-215.info ...
    dc: vin = 216e-03       (12 %), step = 1e-03       (55.6 m%)
dc-216: writing operating point information to rawfile.

Opening the PSF file ../psf/dc-216.info ...
    dc: vin = 217e-03     (12.1 %), step = 1e-03       (55.6 m%)
dc-217: writing operating point information to rawfile.

Opening the PSF file ../psf/dc-217.info ...
    dc: vin = 218e-03     (12.1 %), step = 1e-03       (55.6 m%)
dc-218: writing operating point information to rawfile.

Opening the PSF file ../psf/dc-218.info ...
    dc: vin = 219e-03     (12.2 %), step = 1e-03       (55.6 m%)
dc-219: writing operating point information to rawfile.

Opening the PSF file ../psf/dc-219.info ...
    dc: vin = 220e-03     (12.2 %), step = 1e-03       (55.6 m%)
dc-220: writing operating point information to rawfile.

Opening the PSF file ../psf/dc-220.info ...
    dc: vin = 221e-03     (12.3 %), step = 1e-03       (55.6 m%)
dc-221: writing operating point information to rawfile.

Opening the PSF file ../psf/dc-221.info ...
    dc: vin = 222e-03     (12.3 %), step = 1e-03       (55.6 m%)
dc-222: writing operating point information to rawfile.

Opening the PSF file ../psf/dc-222.info ...
    dc: vin = 223e-03     (12.4 %), step = 1e-03       (55.6 m%)
dc-223: writing operating point information to rawfile.

Opening the PSF file ../psf/dc-223.info ...
    dc: vin = 224e-03     (12.4 %), step = 1e-03       (55.6 m%)
dc-224: writing operating point information to rawfile.

Opening the PSF file ../psf/dc-224.info ...
    dc: vin = 225e-03     (12.5 %), step = 1e-03       (55.6 m%)
dc-225: writing operating point information to rawfile.

Opening the PSF file ../psf/dc-225.info ...
    dc: vin = 226e-03     (12.6 %), step = 1e-03       (55.6 m%)
dc-226: writing operating point information to rawfile.

Opening the PSF file ../psf/dc-226.info ...
    dc: vin = 227e-03     (12.6 %), step = 1e-03       (55.6 m%)
dc-227: writing operating point information to rawfile.

Opening the PSF file ../psf/dc-227.info ...
    dc: vin = 228e-03     (12.7 %), step = 1e-03       (55.6 m%)
dc-228: writing operating point information to rawfile.

Opening the PSF file ../psf/dc-228.info ...
    dc: vin = 229e-03     (12.7 %), step = 1e-03       (55.6 m%)
dc-229: writing operating point information to rawfile.

Opening the PSF file ../psf/dc-229.info ...
    dc: vin = 230e-03     (12.8 %), step = 1e-03       (55.6 m%)
dc-230: writing operating point information to rawfile.

Opening the PSF file ../psf/dc-230.info ...
    dc: vin = 231e-03     (12.8 %), step = 1e-03       (55.6 m%)
dc-231: writing operating point information to rawfile.

Opening the PSF file ../psf/dc-231.info ...
    dc: vin = 232e-03     (12.9 %), step = 1e-03       (55.6 m%)
dc-232: writing operating point information to rawfile.

Opening the PSF file ../psf/dc-232.info ...
    dc: vin = 233e-03     (12.9 %), step = 1e-03       (55.6 m%)
dc-233: writing operating point information to rawfile.

Opening the PSF file ../psf/dc-233.info ...
    dc: vin = 234e-03       (13 %), step = 1e-03       (55.6 m%)
dc-234: writing operating point information to rawfile.

Opening the PSF file ../psf/dc-234.info ...
    dc: vin = 235e-03     (13.1 %), step = 1e-03       (55.6 m%)
dc-235: writing operating point information to rawfile.

Opening the PSF file ../psf/dc-235.info ...
    dc: vin = 236e-03     (13.1 %), step = 1e-03       (55.6 m%)
dc-236: writing operating point information to rawfile.

Opening the PSF file ../psf/dc-236.info ...
    dc: vin = 237e-03     (13.2 %), step = 1e-03       (55.6 m%)
dc-237: writing operating point information to rawfile.

Opening the PSF file ../psf/dc-237.info ...
    dc: vin = 238e-03     (13.2 %), step = 1e-03       (55.6 m%)
dc-238: writing operating point information to rawfile.

Opening the PSF file ../psf/dc-238.info ...
    dc: vin = 239e-03     (13.3 %), step = 1e-03       (55.6 m%)
dc-239: writing operating point information to rawfile.

Opening the PSF file ../psf/dc-239.info ...
    dc: vin = 240e-03     (13.3 %), step = 1e-03       (55.6 m%)
dc-240: writing operating point information to rawfile.

Opening the PSF file ../psf/dc-240.info ...
    dc: vin = 241e-03     (13.4 %), step = 1e-03       (55.6 m%)
dc-241: writing operating point information to rawfile.

Opening the PSF file ../psf/dc-241.info ...
    dc: vin = 242e-03     (13.4 %), step = 1e-03       (55.6 m%)
dc-242: writing operating point information to rawfile.

Opening the PSF file ../psf/dc-242.info ...
    dc: vin = 243e-03     (13.5 %), step = 1e-03       (55.6 m%)
dc-243: writing operating point information to rawfile.

Opening the PSF file ../psf/dc-243.info ...
    dc: vin = 244e-03     (13.6 %), step = 1e-03       (55.6 m%)
dc-244: writing operating point information to rawfile.

Opening the PSF file ../psf/dc-244.info ...
    dc: vin = 245e-03     (13.6 %), step = 1e-03       (55.6 m%)
dc-245: writing operating point information to rawfile.

Opening the PSF file ../psf/dc-245.info ...
    dc: vin = 246e-03     (13.7 %), step = 1e-03       (55.6 m%)
dc-246: writing operating point information to rawfile.

Opening the PSF file ../psf/dc-246.info ...
    dc: vin = 247e-03     (13.7 %), step = 1e-03       (55.6 m%)
dc-247: writing operating point information to rawfile.

Opening the PSF file ../psf/dc-247.info ...
    dc: vin = 248e-03     (13.8 %), step = 1e-03       (55.6 m%)
dc-248: writing operating point information to rawfile.

Opening the PSF file ../psf/dc-248.info ...
    dc: vin = 249e-03     (13.8 %), step = 1e-03       (55.6 m%)
dc-249: writing operating point information to rawfile.

Opening the PSF file ../psf/dc-249.info ...
    dc: vin = 250e-03     (13.9 %), step = 1e-03       (55.6 m%)
dc-250: writing operating point information to rawfile.

Opening the PSF file ../psf/dc-250.info ...
    dc: vin = 251e-03     (13.9 %), step = 1e-03       (55.6 m%)
dc-251: writing operating point information to rawfile.

Opening the PSF file ../psf/dc-251.info ...
    dc: vin = 252e-03       (14 %), step = 1e-03       (55.6 m%)
dc-252: writing operating point information to rawfile.

Opening the PSF file ../psf/dc-252.info ...
    dc: vin = 253e-03     (14.1 %), step = 1e-03       (55.6 m%)
dc-253: writing operating point information to rawfile.

Opening the PSF file ../psf/dc-253.info ...
    dc: vin = 254e-03     (14.1 %), step = 1e-03       (55.6 m%)
dc-254: writing operating point information to rawfile.

Opening the PSF file ../psf/dc-254.info ...
    dc: vin = 255e-03     (14.2 %), step = 1e-03       (55.6 m%)
dc-255: writing operating point information to rawfile.

Opening the PSF file ../psf/dc-255.info ...
    dc: vin = 256e-03     (14.2 %), step = 1e-03       (55.6 m%)
dc-256: writing operating point information to rawfile.

Opening the PSF file ../psf/dc-256.info ...
    dc: vin = 257e-03     (14.3 %), step = 1e-03       (55.6 m%)
dc-257: writing operating point information to rawfile.

Opening the PSF file ../psf/dc-257.info ...
    dc: vin = 258e-03     (14.3 %), step = 1e-03       (55.6 m%)
dc-258: writing operating point information to rawfile.

Opening the PSF file ../psf/dc-258.info ...
    dc: vin = 259e-03     (14.4 %), step = 1e-03       (55.6 m%)
dc-259: writing operating point information to rawfile.

Opening the PSF file ../psf/dc-259.info ...
    dc: vin = 260e-03     (14.4 %), step = 1e-03       (55.6 m%)
dc-260: writing operating point information to rawfile.

Opening the PSF file ../psf/dc-260.info ...
    dc: vin = 261e-03     (14.5 %), step = 1e-03       (55.6 m%)
dc-261: writing operating point information to rawfile.

Opening the PSF file ../psf/dc-261.info ...
    dc: vin = 262e-03     (14.6 %), step = 1e-03       (55.6 m%)
dc-262: writing operating point information to rawfile.

Opening the PSF file ../psf/dc-262.info ...
    dc: vin = 263e-03     (14.6 %), step = 1e-03       (55.6 m%)
dc-263: writing operating point information to rawfile.

Opening the PSF file ../psf/dc-263.info ...
    dc: vin = 264e-03     (14.7 %), step = 1e-03       (55.6 m%)
dc-264: writing operating point information to rawfile.

Opening the PSF file ../psf/dc-264.info ...
    dc: vin = 265e-03     (14.7 %), step = 1e-03       (55.6 m%)
dc-265: writing operating point information to rawfile.

Opening the PSF file ../psf/dc-265.info ...
    dc: vin = 266e-03     (14.8 %), step = 1e-03       (55.6 m%)
dc-266: writing operating point information to rawfile.

Opening the PSF file ../psf/dc-266.info ...
    dc: vin = 267e-03     (14.8 %), step = 1e-03       (55.6 m%)
dc-267: writing operating point information to rawfile.

Opening the PSF file ../psf/dc-267.info ...
    dc: vin = 268e-03     (14.9 %), step = 1e-03       (55.6 m%)
dc-268: writing operating point information to rawfile.

Opening the PSF file ../psf/dc-268.info ...
    dc: vin = 269e-03     (14.9 %), step = 1e-03       (55.6 m%)
dc-269: writing operating point information to rawfile.

Opening the PSF file ../psf/dc-269.info ...
    dc: vin = 270e-03       (15 %), step = 1e-03       (55.6 m%)
dc-270: writing operating point information to rawfile.

Opening the PSF file ../psf/dc-270.info ...
    dc: vin = 271e-03     (15.1 %), step = 1e-03       (55.6 m%)
dc-271: writing operating point information to rawfile.

Opening the PSF file ../psf/dc-271.info ...
    dc: vin = 272e-03     (15.1 %), step = 1e-03       (55.6 m%)
dc-272: writing operating point information to rawfile.

Opening the PSF file ../psf/dc-272.info ...
    dc: vin = 273e-03     (15.2 %), step = 1e-03       (55.6 m%)
dc-273: writing operating point information to rawfile.

Opening the PSF file ../psf/dc-273.info ...
    dc: vin = 274e-03     (15.2 %), step = 1e-03       (55.6 m%)
dc-274: writing operating point information to rawfile.

Opening the PSF file ../psf/dc-274.info ...
    dc: vin = 275e-03     (15.3 %), step = 1e-03       (55.6 m%)
dc-275: writing operating point information to rawfile.

Opening the PSF file ../psf/dc-275.info ...
    dc: vin = 276e-03     (15.3 %), step = 1e-03       (55.6 m%)
dc-276: writing operating point information to rawfile.

Opening the PSF file ../psf/dc-276.info ...
    dc: vin = 277e-03     (15.4 %), step = 1e-03       (55.6 m%)
dc-277: writing operating point information to rawfile.

Opening the PSF file ../psf/dc-277.info ...
    dc: vin = 278e-03     (15.4 %), step = 1e-03       (55.6 m%)
dc-278: writing operating point information to rawfile.

Opening the PSF file ../psf/dc-278.info ...
    dc: vin = 279e-03     (15.5 %), step = 1e-03       (55.6 m%)
dc-279: writing operating point information to rawfile.

Opening the PSF file ../psf/dc-279.info ...
    dc: vin = 280e-03     (15.6 %), step = 1e-03       (55.6 m%)
dc-280: writing operating point information to rawfile.

Opening the PSF file ../psf/dc-280.info ...
    dc: vin = 281e-03     (15.6 %), step = 1e-03       (55.6 m%)
dc-281: writing operating point information to rawfile.

Opening the PSF file ../psf/dc-281.info ...
    dc: vin = 282e-03     (15.7 %), step = 1e-03       (55.6 m%)
dc-282: writing operating point information to rawfile.

Opening the PSF file ../psf/dc-282.info ...
    dc: vin = 283e-03     (15.7 %), step = 1e-03       (55.6 m%)
dc-283: writing operating point information to rawfile.

Opening the PSF file ../psf/dc-283.info ...
    dc: vin = 284e-03     (15.8 %), step = 1e-03       (55.6 m%)
dc-284: writing operating point information to rawfile.

Opening the PSF file ../psf/dc-284.info ...
    dc: vin = 285e-03     (15.8 %), step = 1e-03       (55.6 m%)
dc-285: writing operating point information to rawfile.

Opening the PSF file ../psf/dc-285.info ...
    dc: vin = 286e-03     (15.9 %), step = 1e-03       (55.6 m%)
dc-286: writing operating point information to rawfile.

Opening the PSF file ../psf/dc-286.info ...
    dc: vin = 287e-03     (15.9 %), step = 1e-03       (55.6 m%)
dc-287: writing operating point information to rawfile.

Opening the PSF file ../psf/dc-287.info ...
    dc: vin = 288e-03       (16 %), step = 1e-03       (55.6 m%)
dc-288: writing operating point information to rawfile.

Opening the PSF file ../psf/dc-288.info ...
    dc: vin = 289e-03     (16.1 %), step = 1e-03       (55.6 m%)
dc-289: writing operating point information to rawfile.

Opening the PSF file ../psf/dc-289.info ...
    dc: vin = 290e-03     (16.1 %), step = 1e-03       (55.6 m%)
dc-290: writing operating point information to rawfile.

Opening the PSF file ../psf/dc-290.info ...
    dc: vin = 291e-03     (16.2 %), step = 1e-03       (55.6 m%)
dc-291: writing operating point information to rawfile.

Opening the PSF file ../psf/dc-291.info ...
    dc: vin = 292e-03     (16.2 %), step = 1e-03       (55.6 m%)
dc-292: writing operating point information to rawfile.

Opening the PSF file ../psf/dc-292.info ...
    dc: vin = 293e-03     (16.3 %), step = 1e-03       (55.6 m%)
dc-293: writing operating point information to rawfile.

Opening the PSF file ../psf/dc-293.info ...
    dc: vin = 294e-03     (16.3 %), step = 1e-03       (55.6 m%)
dc-294: writing operating point information to rawfile.

Opening the PSF file ../psf/dc-294.info ...
    dc: vin = 295e-03     (16.4 %), step = 1e-03       (55.6 m%)
dc-295: writing operating point information to rawfile.

Opening the PSF file ../psf/dc-295.info ...
    dc: vin = 296e-03     (16.4 %), step = 1e-03       (55.6 m%)
dc-296: writing operating point information to rawfile.

Opening the PSF file ../psf/dc-296.info ...
    dc: vin = 297e-03     (16.5 %), step = 1e-03       (55.6 m%)
dc-297: writing operating point information to rawfile.

Opening the PSF file ../psf/dc-297.info ...
    dc: vin = 298e-03     (16.6 %), step = 1e-03       (55.6 m%)
dc-298: writing operating point information to rawfile.

Opening the PSF file ../psf/dc-298.info ...
    dc: vin = 299e-03     (16.6 %), step = 1e-03       (55.6 m%)
dc-299: writing operating point information to rawfile.

Opening the PSF file ../psf/dc-299.info ...
    dc: vin = 300e-03     (16.7 %), step = 1e-03       (55.6 m%)
dc-300: writing operating point information to rawfile.

Opening the PSF file ../psf/dc-300.info ...
    dc: vin = 301e-03     (16.7 %), step = 1e-03       (55.6 m%)
dc-301: writing operating point information to rawfile.

Opening the PSF file ../psf/dc-301.info ...
    dc: vin = 302e-03     (16.8 %), step = 1e-03       (55.6 m%)
dc-302: writing operating point information to rawfile.

Opening the PSF file ../psf/dc-302.info ...
    dc: vin = 303e-03     (16.8 %), step = 1e-03       (55.6 m%)
dc-303: writing operating point information to rawfile.

Opening the PSF file ../psf/dc-303.info ...
    dc: vin = 304e-03     (16.9 %), step = 1e-03       (55.6 m%)
dc-304: writing operating point information to rawfile.

Opening the PSF file ../psf/dc-304.info ...
    dc: vin = 305e-03     (16.9 %), step = 1e-03       (55.6 m%)
dc-305: writing operating point information to rawfile.

Opening the PSF file ../psf/dc-305.info ...
    dc: vin = 306e-03       (17 %), step = 1e-03       (55.6 m%)
dc-306: writing operating point information to rawfile.

Opening the PSF file ../psf/dc-306.info ...
    dc: vin = 307e-03     (17.1 %), step = 1e-03       (55.6 m%)
dc-307: writing operating point information to rawfile.

Opening the PSF file ../psf/dc-307.info ...
    dc: vin = 308e-03     (17.1 %), step = 1e-03       (55.6 m%)
dc-308: writing operating point information to rawfile.

Opening the PSF file ../psf/dc-308.info ...
    dc: vin = 309e-03     (17.2 %), step = 1e-03       (55.6 m%)
dc-309: writing operating point information to rawfile.

Opening the PSF file ../psf/dc-309.info ...
    dc: vin = 310e-03     (17.2 %), step = 1e-03       (55.6 m%)
dc-310: writing operating point information to rawfile.

Opening the PSF file ../psf/dc-310.info ...
    dc: vin = 311e-03     (17.3 %), step = 1e-03       (55.6 m%)
dc-311: writing operating point information to rawfile.

Opening the PSF file ../psf/dc-311.info ...
    dc: vin = 312e-03     (17.3 %), step = 1e-03       (55.6 m%)
dc-312: writing operating point information to rawfile.

Opening the PSF file ../psf/dc-312.info ...
    dc: vin = 313e-03     (17.4 %), step = 1e-03       (55.6 m%)
dc-313: writing operating point information to rawfile.

Opening the PSF file ../psf/dc-313.info ...
    dc: vin = 314e-03     (17.4 %), step = 1e-03       (55.6 m%)
dc-314: writing operating point information to rawfile.

Opening the PSF file ../psf/dc-314.info ...
    dc: vin = 315e-03     (17.5 %), step = 1e-03       (55.6 m%)
dc-315: writing operating point information to rawfile.

Opening the PSF file ../psf/dc-315.info ...
    dc: vin = 316e-03     (17.6 %), step = 1e-03       (55.6 m%)
dc-316: writing operating point information to rawfile.

Opening the PSF file ../psf/dc-316.info ...
    dc: vin = 317e-03     (17.6 %), step = 1e-03       (55.6 m%)
dc-317: writing operating point information to rawfile.

Opening the PSF file ../psf/dc-317.info ...
    dc: vin = 318e-03     (17.7 %), step = 1e-03       (55.6 m%)
dc-318: writing operating point information to rawfile.

Opening the PSF file ../psf/dc-318.info ...
    dc: vin = 319e-03     (17.7 %), step = 1e-03       (55.6 m%)
dc-319: writing operating point information to rawfile.

Opening the PSF file ../psf/dc-319.info ...
    dc: vin = 320e-03     (17.8 %), step = 1e-03       (55.6 m%)
dc-320: writing operating point information to rawfile.

Opening the PSF file ../psf/dc-320.info ...
    dc: vin = 321e-03     (17.8 %), step = 1e-03       (55.6 m%)
dc-321: writing operating point information to rawfile.

Opening the PSF file ../psf/dc-321.info ...
    dc: vin = 322e-03     (17.9 %), step = 1e-03       (55.6 m%)
dc-322: writing operating point information to rawfile.

Opening the PSF file ../psf/dc-322.info ...
    dc: vin = 323e-03     (17.9 %), step = 1e-03       (55.6 m%)
dc-323: writing operating point information to rawfile.

Opening the PSF file ../psf/dc-323.info ...
    dc: vin = 324e-03       (18 %), step = 1e-03       (55.6 m%)
dc-324: writing operating point information to rawfile.

Opening the PSF file ../psf/dc-324.info ...
    dc: vin = 325e-03     (18.1 %), step = 1e-03       (55.6 m%)
dc-325: writing operating point information to rawfile.

Opening the PSF file ../psf/dc-325.info ...
    dc: vin = 326e-03     (18.1 %), step = 1e-03       (55.6 m%)
dc-326: writing operating point information to rawfile.

Opening the PSF file ../psf/dc-326.info ...
    dc: vin = 327e-03     (18.2 %), step = 1e-03       (55.6 m%)
dc-327: writing operating point information to rawfile.

Opening the PSF file ../psf/dc-327.info ...
    dc: vin = 328e-03     (18.2 %), step = 1e-03       (55.6 m%)
dc-328: writing operating point information to rawfile.

Opening the PSF file ../psf/dc-328.info ...
    dc: vin = 329e-03     (18.3 %), step = 1e-03       (55.6 m%)
dc-329: writing operating point information to rawfile.

Opening the PSF file ../psf/dc-329.info ...
    dc: vin = 330e-03     (18.3 %), step = 1e-03       (55.6 m%)
dc-330: writing operating point information to rawfile.

Opening the PSF file ../psf/dc-330.info ...
    dc: vin = 331e-03     (18.4 %), step = 1e-03       (55.6 m%)
dc-331: writing operating point information to rawfile.

Opening the PSF file ../psf/dc-331.info ...
    dc: vin = 332e-03     (18.4 %), step = 1e-03       (55.6 m%)
dc-332: writing operating point information to rawfile.

Opening the PSF file ../psf/dc-332.info ...
    dc: vin = 333e-03     (18.5 %), step = 1e-03       (55.6 m%)
dc-333: writing operating point information to rawfile.

Opening the PSF file ../psf/dc-333.info ...
    dc: vin = 334e-03     (18.6 %), step = 1e-03       (55.6 m%)
dc-334: writing operating point information to rawfile.

Opening the PSF file ../psf/dc-334.info ...
    dc: vin = 335e-03     (18.6 %), step = 1e-03       (55.6 m%)
dc-335: writing operating point information to rawfile.

Opening the PSF file ../psf/dc-335.info ...
    dc: vin = 336e-03     (18.7 %), step = 1e-03       (55.6 m%)
dc-336: writing operating point information to rawfile.

Opening the PSF file ../psf/dc-336.info ...
    dc: vin = 337e-03     (18.7 %), step = 1e-03       (55.6 m%)
dc-337: writing operating point information to rawfile.

Opening the PSF file ../psf/dc-337.info ...
    dc: vin = 338e-03     (18.8 %), step = 1e-03       (55.6 m%)
dc-338: writing operating point information to rawfile.

Opening the PSF file ../psf/dc-338.info ...
    dc: vin = 339e-03     (18.8 %), step = 1e-03       (55.6 m%)
dc-339: writing operating point information to rawfile.

Opening the PSF file ../psf/dc-339.info ...
    dc: vin = 340e-03     (18.9 %), step = 1e-03       (55.6 m%)
dc-340: writing operating point information to rawfile.

Opening the PSF file ../psf/dc-340.info ...
    dc: vin = 341e-03     (18.9 %), step = 1e-03       (55.6 m%)
dc-341: writing operating point information to rawfile.

Opening the PSF file ../psf/dc-341.info ...
    dc: vin = 342e-03       (19 %), step = 1e-03       (55.6 m%)
dc-342: writing operating point information to rawfile.

Opening the PSF file ../psf/dc-342.info ...
    dc: vin = 343e-03     (19.1 %), step = 1e-03       (55.6 m%)
dc-343: writing operating point information to rawfile.

Opening the PSF file ../psf/dc-343.info ...
    dc: vin = 344e-03     (19.1 %), step = 1e-03       (55.6 m%)
dc-344: writing operating point information to rawfile.

Opening the PSF file ../psf/dc-344.info ...
    dc: vin = 345e-03     (19.2 %), step = 1e-03       (55.6 m%)
dc-345: writing operating point information to rawfile.

Opening the PSF file ../psf/dc-345.info ...
    dc: vin = 346e-03     (19.2 %), step = 1e-03       (55.6 m%)
dc-346: writing operating point information to rawfile.

Opening the PSF file ../psf/dc-346.info ...
    dc: vin = 347e-03     (19.3 %), step = 1e-03       (55.6 m%)
dc-347: writing operating point information to rawfile.

Opening the PSF file ../psf/dc-347.info ...
    dc: vin = 348e-03     (19.3 %), step = 1e-03       (55.6 m%)
dc-348: writing operating point information to rawfile.

Opening the PSF file ../psf/dc-348.info ...
    dc: vin = 349e-03     (19.4 %), step = 1e-03       (55.6 m%)
dc-349: writing operating point information to rawfile.

Opening the PSF file ../psf/dc-349.info ...
    dc: vin = 350e-03     (19.4 %), step = 1e-03       (55.6 m%)
dc-350: writing operating point information to rawfile.

Opening the PSF file ../psf/dc-350.info ...
    dc: vin = 351e-03     (19.5 %), step = 1e-03       (55.6 m%)
dc-351: writing operating point information to rawfile.

Opening the PSF file ../psf/dc-351.info ...
    dc: vin = 352e-03     (19.6 %), step = 1e-03       (55.6 m%)
dc-352: writing operating point information to rawfile.

Opening the PSF file ../psf/dc-352.info ...
    dc: vin = 353e-03     (19.6 %), step = 1e-03       (55.6 m%)
dc-353: writing operating point information to rawfile.

Opening the PSF file ../psf/dc-353.info ...
    dc: vin = 354e-03     (19.7 %), step = 1e-03       (55.6 m%)
dc-354: writing operating point information to rawfile.

Opening the PSF file ../psf/dc-354.info ...
    dc: vin = 355e-03     (19.7 %), step = 1e-03       (55.6 m%)
dc-355: writing operating point information to rawfile.

Opening the PSF file ../psf/dc-355.info ...
    dc: vin = 356e-03     (19.8 %), step = 1e-03       (55.6 m%)
dc-356: writing operating point information to rawfile.

Opening the PSF file ../psf/dc-356.info ...
    dc: vin = 357e-03     (19.8 %), step = 1e-03       (55.6 m%)
dc-357: writing operating point information to rawfile.

Opening the PSF file ../psf/dc-357.info ...
    dc: vin = 358e-03     (19.9 %), step = 1e-03       (55.6 m%)
dc-358: writing operating point information to rawfile.

Opening the PSF file ../psf/dc-358.info ...
    dc: vin = 359e-03     (19.9 %), step = 1e-03       (55.6 m%)
dc-359: writing operating point information to rawfile.

Opening the PSF file ../psf/dc-359.info ...
    dc: vin = 360e-03       (20 %), step = 1e-03       (55.6 m%)
dc-360: writing operating point information to rawfile.

Opening the PSF file ../psf/dc-360.info ...
    dc: vin = 361e-03     (20.1 %), step = 1e-03       (55.6 m%)
dc-361: writing operating point information to rawfile.

Opening the PSF file ../psf/dc-361.info ...
    dc: vin = 362e-03     (20.1 %), step = 1e-03       (55.6 m%)
dc-362: writing operating point information to rawfile.

Opening the PSF file ../psf/dc-362.info ...
    dc: vin = 363e-03     (20.2 %), step = 1e-03       (55.6 m%)
dc-363: writing operating point information to rawfile.

Opening the PSF file ../psf/dc-363.info ...
    dc: vin = 364e-03     (20.2 %), step = 1e-03       (55.6 m%)
dc-364: writing operating point information to rawfile.

Opening the PSF file ../psf/dc-364.info ...
    dc: vin = 365e-03     (20.3 %), step = 1e-03       (55.6 m%)
dc-365: writing operating point information to rawfile.

Opening the PSF file ../psf/dc-365.info ...
    dc: vin = 366e-03     (20.3 %), step = 1e-03       (55.6 m%)
dc-366: writing operating point information to rawfile.

Opening the PSF file ../psf/dc-366.info ...
    dc: vin = 367e-03     (20.4 %), step = 1e-03       (55.6 m%)
dc-367: writing operating point information to rawfile.

Opening the PSF file ../psf/dc-367.info ...
    dc: vin = 368e-03     (20.4 %), step = 1e-03       (55.6 m%)
dc-368: writing operating point information to rawfile.

Opening the PSF file ../psf/dc-368.info ...
    dc: vin = 369e-03     (20.5 %), step = 1e-03       (55.6 m%)
dc-369: writing operating point information to rawfile.

Opening the PSF file ../psf/dc-369.info ...
    dc: vin = 370e-03     (20.6 %), step = 1e-03       (55.6 m%)
dc-370: writing operating point information to rawfile.

Opening the PSF file ../psf/dc-370.info ...
    dc: vin = 371e-03     (20.6 %), step = 1e-03       (55.6 m%)
dc-371: writing operating point information to rawfile.

Opening the PSF file ../psf/dc-371.info ...
    dc: vin = 372e-03     (20.7 %), step = 1e-03       (55.6 m%)
dc-372: writing operating point information to rawfile.

Opening the PSF file ../psf/dc-372.info ...
    dc: vin = 373e-03     (20.7 %), step = 1e-03       (55.6 m%)
dc-373: writing operating point information to rawfile.

Opening the PSF file ../psf/dc-373.info ...
    dc: vin = 374e-03     (20.8 %), step = 1e-03       (55.6 m%)
dc-374: writing operating point information to rawfile.

Opening the PSF file ../psf/dc-374.info ...
    dc: vin = 375e-03     (20.8 %), step = 1e-03       (55.6 m%)
dc-375: writing operating point information to rawfile.

Opening the PSF file ../psf/dc-375.info ...
    dc: vin = 376e-03     (20.9 %), step = 1e-03       (55.6 m%)
dc-376: writing operating point information to rawfile.

Opening the PSF file ../psf/dc-376.info ...
    dc: vin = 377e-03     (20.9 %), step = 1e-03       (55.6 m%)
dc-377: writing operating point information to rawfile.

Opening the PSF file ../psf/dc-377.info ...
    dc: vin = 378e-03       (21 %), step = 1e-03       (55.6 m%)
dc-378: writing operating point information to rawfile.

Opening the PSF file ../psf/dc-378.info ...
    dc: vin = 379e-03     (21.1 %), step = 1e-03       (55.6 m%)
dc-379: writing operating point information to rawfile.

Opening the PSF file ../psf/dc-379.info ...
    dc: vin = 380e-03     (21.1 %), step = 1e-03       (55.6 m%)
dc-380: writing operating point information to rawfile.

Opening the PSF file ../psf/dc-380.info ...
    dc: vin = 381e-03     (21.2 %), step = 1e-03       (55.6 m%)
dc-381: writing operating point information to rawfile.

Opening the PSF file ../psf/dc-381.info ...
    dc: vin = 382e-03     (21.2 %), step = 1e-03       (55.6 m%)
dc-382: writing operating point information to rawfile.

Opening the PSF file ../psf/dc-382.info ...
    dc: vin = 383e-03     (21.3 %), step = 1e-03       (55.6 m%)
dc-383: writing operating point information to rawfile.

Opening the PSF file ../psf/dc-383.info ...
    dc: vin = 384e-03     (21.3 %), step = 1e-03       (55.6 m%)
dc-384: writing operating point information to rawfile.

Opening the PSF file ../psf/dc-384.info ...
    dc: vin = 385e-03     (21.4 %), step = 1e-03       (55.6 m%)
dc-385: writing operating point information to rawfile.

Opening the PSF file ../psf/dc-385.info ...
    dc: vin = 386e-03     (21.4 %), step = 1e-03       (55.6 m%)
dc-386: writing operating point information to rawfile.

Opening the PSF file ../psf/dc-386.info ...
    dc: vin = 387e-03     (21.5 %), step = 1e-03       (55.6 m%)
dc-387: writing operating point information to rawfile.

Opening the PSF file ../psf/dc-387.info ...
    dc: vin = 388e-03     (21.6 %), step = 1e-03       (55.6 m%)
dc-388: writing operating point information to rawfile.

Opening the PSF file ../psf/dc-388.info ...
    dc: vin = 389e-03     (21.6 %), step = 1e-03       (55.6 m%)
dc-389: writing operating point information to rawfile.

Opening the PSF file ../psf/dc-389.info ...
    dc: vin = 390e-03     (21.7 %), step = 1e-03       (55.6 m%)
dc-390: writing operating point information to rawfile.

Opening the PSF file ../psf/dc-390.info ...
    dc: vin = 391e-03     (21.7 %), step = 1e-03       (55.6 m%)
dc-391: writing operating point information to rawfile.

Opening the PSF file ../psf/dc-391.info ...
    dc: vin = 392e-03     (21.8 %), step = 1e-03       (55.6 m%)
dc-392: writing operating point information to rawfile.

Opening the PSF file ../psf/dc-392.info ...
    dc: vin = 393e-03     (21.8 %), step = 1e-03       (55.6 m%)
dc-393: writing operating point information to rawfile.

Opening the PSF file ../psf/dc-393.info ...
    dc: vin = 394e-03     (21.9 %), step = 1e-03       (55.6 m%)
dc-394: writing operating point information to rawfile.

Opening the PSF file ../psf/dc-394.info ...
    dc: vin = 395e-03     (21.9 %), step = 1e-03       (55.6 m%)
dc-395: writing operating point information to rawfile.

Opening the PSF file ../psf/dc-395.info ...
    dc: vin = 396e-03       (22 %), step = 1e-03       (55.6 m%)
dc-396: writing operating point information to rawfile.

Opening the PSF file ../psf/dc-396.info ...
    dc: vin = 397e-03     (22.1 %), step = 1e-03       (55.6 m%)
dc-397: writing operating point information to rawfile.

Opening the PSF file ../psf/dc-397.info ...
    dc: vin = 398e-03     (22.1 %), step = 1e-03       (55.6 m%)
dc-398: writing operating point information to rawfile.

Opening the PSF file ../psf/dc-398.info ...
    dc: vin = 399e-03     (22.2 %), step = 1e-03       (55.6 m%)
dc-399: writing operating point information to rawfile.

Opening the PSF file ../psf/dc-399.info ...
    dc: vin = 400e-03     (22.2 %), step = 1e-03       (55.6 m%)
dc-400: writing operating point information to rawfile.

Opening the PSF file ../psf/dc-400.info ...
    dc: vin = 401e-03     (22.3 %), step = 1e-03       (55.6 m%)
dc-401: writing operating point information to rawfile.

Opening the PSF file ../psf/dc-401.info ...
    dc: vin = 402e-03     (22.3 %), step = 1e-03       (55.6 m%)
dc-402: writing operating point information to rawfile.

Opening the PSF file ../psf/dc-402.info ...
    dc: vin = 403e-03     (22.4 %), step = 1e-03       (55.6 m%)
dc-403: writing operating point information to rawfile.

Opening the PSF file ../psf/dc-403.info ...
    dc: vin = 404e-03     (22.4 %), step = 1e-03       (55.6 m%)
dc-404: writing operating point information to rawfile.

Opening the PSF file ../psf/dc-404.info ...
    dc: vin = 405e-03     (22.5 %), step = 1e-03       (55.6 m%)
dc-405: writing operating point information to rawfile.

Opening the PSF file ../psf/dc-405.info ...
    dc: vin = 406e-03     (22.6 %), step = 1e-03       (55.6 m%)
dc-406: writing operating point information to rawfile.

Opening the PSF file ../psf/dc-406.info ...
    dc: vin = 407e-03     (22.6 %), step = 1e-03       (55.6 m%)
dc-407: writing operating point information to rawfile.

Opening the PSF file ../psf/dc-407.info ...
    dc: vin = 408e-03     (22.7 %), step = 1e-03       (55.6 m%)
dc-408: writing operating point information to rawfile.

Opening the PSF file ../psf/dc-408.info ...
    dc: vin = 409e-03     (22.7 %), step = 1e-03       (55.6 m%)
dc-409: writing operating point information to rawfile.

Opening the PSF file ../psf/dc-409.info ...
    dc: vin = 410e-03     (22.8 %), step = 1e-03       (55.6 m%)
dc-410: writing operating point information to rawfile.

Opening the PSF file ../psf/dc-410.info ...
    dc: vin = 411e-03     (22.8 %), step = 1e-03       (55.6 m%)
dc-411: writing operating point information to rawfile.

Opening the PSF file ../psf/dc-411.info ...
    dc: vin = 412e-03     (22.9 %), step = 1e-03       (55.6 m%)
dc-412: writing operating point information to rawfile.

Opening the PSF file ../psf/dc-412.info ...
    dc: vin = 413e-03     (22.9 %), step = 1e-03       (55.6 m%)
dc-413: writing operating point information to rawfile.

Opening the PSF file ../psf/dc-413.info ...
    dc: vin = 414e-03       (23 %), step = 1e-03       (55.6 m%)
dc-414: writing operating point information to rawfile.

Opening the PSF file ../psf/dc-414.info ...
    dc: vin = 415e-03     (23.1 %), step = 1e-03       (55.6 m%)
dc-415: writing operating point information to rawfile.

Opening the PSF file ../psf/dc-415.info ...
    dc: vin = 416e-03     (23.1 %), step = 1e-03       (55.6 m%)
dc-416: writing operating point information to rawfile.

Opening the PSF file ../psf/dc-416.info ...
    dc: vin = 417e-03     (23.2 %), step = 1e-03       (55.6 m%)
dc-417: writing operating point information to rawfile.

Opening the PSF file ../psf/dc-417.info ...
    dc: vin = 418e-03     (23.2 %), step = 1e-03       (55.6 m%)
dc-418: writing operating point information to rawfile.

Opening the PSF file ../psf/dc-418.info ...
    dc: vin = 419e-03     (23.3 %), step = 1e-03       (55.6 m%)
dc-419: writing operating point information to rawfile.

Opening the PSF file ../psf/dc-419.info ...
    dc: vin = 420e-03     (23.3 %), step = 1e-03       (55.6 m%)
dc-420: writing operating point information to rawfile.

Opening the PSF file ../psf/dc-420.info ...
    dc: vin = 421e-03     (23.4 %), step = 1e-03       (55.6 m%)
dc-421: writing operating point information to rawfile.

Opening the PSF file ../psf/dc-421.info ...
    dc: vin = 422e-03     (23.4 %), step = 1e-03       (55.6 m%)
dc-422: writing operating point information to rawfile.

Opening the PSF file ../psf/dc-422.info ...
    dc: vin = 423e-03     (23.5 %), step = 1e-03       (55.6 m%)
dc-423: writing operating point information to rawfile.

Opening the PSF file ../psf/dc-423.info ...
    dc: vin = 424e-03     (23.6 %), step = 1e-03       (55.6 m%)
dc-424: writing operating point information to rawfile.

Opening the PSF file ../psf/dc-424.info ...
    dc: vin = 425e-03     (23.6 %), step = 1e-03       (55.6 m%)
dc-425: writing operating point information to rawfile.

Opening the PSF file ../psf/dc-425.info ...
    dc: vin = 426e-03     (23.7 %), step = 1e-03       (55.6 m%)
dc-426: writing operating point information to rawfile.

Opening the PSF file ../psf/dc-426.info ...
    dc: vin = 427e-03     (23.7 %), step = 1e-03       (55.6 m%)
dc-427: writing operating point information to rawfile.

Opening the PSF file ../psf/dc-427.info ...
    dc: vin = 428e-03     (23.8 %), step = 1e-03       (55.6 m%)
dc-428: writing operating point information to rawfile.

Opening the PSF file ../psf/dc-428.info ...
    dc: vin = 429e-03     (23.8 %), step = 1e-03       (55.6 m%)
dc-429: writing operating point information to rawfile.

Opening the PSF file ../psf/dc-429.info ...
    dc: vin = 430e-03     (23.9 %), step = 1e-03       (55.6 m%)
dc-430: writing operating point information to rawfile.

Opening the PSF file ../psf/dc-430.info ...
    dc: vin = 431e-03     (23.9 %), step = 1e-03       (55.6 m%)
dc-431: writing operating point information to rawfile.

Opening the PSF file ../psf/dc-431.info ...
    dc: vin = 432e-03       (24 %), step = 1e-03       (55.6 m%)
dc-432: writing operating point information to rawfile.

Opening the PSF file ../psf/dc-432.info ...
    dc: vin = 433e-03     (24.1 %), step = 1e-03       (55.6 m%)
dc-433: writing operating point information to rawfile.

Opening the PSF file ../psf/dc-433.info ...
    dc: vin = 434e-03     (24.1 %), step = 1e-03       (55.6 m%)
dc-434: writing operating point information to rawfile.

Opening the PSF file ../psf/dc-434.info ...
    dc: vin = 435e-03     (24.2 %), step = 1e-03       (55.6 m%)
dc-435: writing operating point information to rawfile.

Opening the PSF file ../psf/dc-435.info ...
    dc: vin = 436e-03     (24.2 %), step = 1e-03       (55.6 m%)
dc-436: writing operating point information to rawfile.

Opening the PSF file ../psf/dc-436.info ...
    dc: vin = 437e-03     (24.3 %), step = 1e-03       (55.6 m%)
dc-437: writing operating point information to rawfile.

Opening the PSF file ../psf/dc-437.info ...
    dc: vin = 438e-03     (24.3 %), step = 1e-03       (55.6 m%)
dc-438: writing operating point information to rawfile.

Opening the PSF file ../psf/dc-438.info ...
    dc: vin = 439e-03     (24.4 %), step = 1e-03       (55.6 m%)
dc-439: writing operating point information to rawfile.

Opening the PSF file ../psf/dc-439.info ...
    dc: vin = 440e-03     (24.4 %), step = 1e-03       (55.6 m%)
dc-440: writing operating point information to rawfile.

Opening the PSF file ../psf/dc-440.info ...
    dc: vin = 441e-03     (24.5 %), step = 1e-03       (55.6 m%)
dc-441: writing operating point information to rawfile.

Opening the PSF file ../psf/dc-441.info ...
    dc: vin = 442e-03     (24.6 %), step = 1e-03       (55.6 m%)
dc-442: writing operating point information to rawfile.

Opening the PSF file ../psf/dc-442.info ...
    dc: vin = 443e-03     (24.6 %), step = 1e-03       (55.6 m%)
dc-443: writing operating point information to rawfile.

Opening the PSF file ../psf/dc-443.info ...
    dc: vin = 444e-03     (24.7 %), step = 1e-03       (55.6 m%)
dc-444: writing operating point information to rawfile.

Opening the PSF file ../psf/dc-444.info ...
    dc: vin = 445e-03     (24.7 %), step = 1e-03       (55.6 m%)
dc-445: writing operating point information to rawfile.

Opening the PSF file ../psf/dc-445.info ...
    dc: vin = 446e-03     (24.8 %), step = 1e-03       (55.6 m%)
dc-446: writing operating point information to rawfile.

Opening the PSF file ../psf/dc-446.info ...
[...]
    dc: vin = 1.738       (96.6 %), step = 1e-03       (55.6 m%)
dc-1738: writing operating point information to rawfile.

Opening the PSF file ../psf/dc-1738.info ...
    dc: vin = 1.739       (96.6 %), step = 1e-03       (55.6 m%)
dc-1739: writing operating point information to rawfile.

Opening the PSF file ../psf/dc-1739.info ...
    dc: vin = 1.74        (96.7 %), step = 1e-03       (55.6 m%)
dc-1740: writing operating point information to rawfile.

Opening the PSF file ../psf/dc-1740.info ...
    dc: vin = 1.741       (96.7 %), step = 1e-03       (55.6 m%)
dc-1741: writing operating point information to rawfile.

Opening the PSF file ../psf/dc-1741.info ...
    dc: vin = 1.742       (96.8 %), step = 1e-03       (55.6 m%)
dc-1742: writing operating point information to rawfile.

Opening the PSF file ../psf/dc-1742.info ...
    dc: vin = 1.743       (96.8 %), step = 1e-03       (55.6 m%)
dc-1743: writing operating point information to rawfile.

Opening the PSF file ../psf/dc-1743.info ...
    dc: vin = 1.744       (96.9 %), step = 1e-03       (55.6 m%)
dc-1744: writing operating point information to rawfile.

Opening the PSF file ../psf/dc-1744.info ...
    dc: vin = 1.745       (96.9 %), step = 1e-03       (55.6 m%)
dc-1745: writing operating point information to rawfile.

Opening the PSF file ../psf/dc-1745.info ...
    dc: vin = 1.746         (97 %), step = 1e-03       (55.6 m%)
dc-1746: writing operating point information to rawfile.

Opening the PSF file ../psf/dc-1746.info ...
    dc: vin = 1.747       (97.1 %), step = 1e-03       (55.6 m%)
dc-1747: writing operating point information to rawfile.

Opening the PSF file ../psf/dc-1747.info ...
    dc: vin = 1.748       (97.1 %), step = 1e-03       (55.6 m%)
dc-1748: writing operating point information to rawfile.

Opening the PSF file ../psf/dc-1748.info ...
    dc: vin = 1.749       (97.2 %), step = 1e-03       (55.6 m%)
dc-1749: writing operating point information to rawfile.

Opening the PSF file ../psf/dc-1749.info ...
    dc: vin = 1.75        (97.2 %), step = 1e-03       (55.6 m%)
dc-1750: writing operating point information to rawfile.

Opening the PSF file ../psf/dc-1750.info ...
    dc: vin = 1.751       (97.3 %), step = 1e-03       (55.6 m%)
dc-1751: writing operating point information to rawfile.

Opening the PSF file ../psf/dc-1751.info ...
    dc: vin = 1.752       (97.3 %), step = 1e-03       (55.6 m%)
dc-1752: writing operating point information to rawfile.

Opening the PSF file ../psf/dc-1752.info ...
    dc: vin = 1.753       (97.4 %), step = 1e-03       (55.6 m%)
dc-1753: writing operating point information to rawfile.

Opening the PSF file ../psf/dc-1753.info ...
    dc: vin = 1.754       (97.4 %), step = 1e-03       (55.6 m%)
dc-1754: writing operating point information to rawfile.

Opening the PSF file ../psf/dc-1754.info ...
    dc: vin = 1.755       (97.5 %), step = 1e-03       (55.6 m%)
dc-1755: writing operating point information to rawfile.

Opening the PSF file ../psf/dc-1755.info ...
    dc: vin = 1.756       (97.6 %), step = 1e-03       (55.6 m%)
dc-1756: writing operating point information to rawfile.

Opening the PSF file ../psf/dc-1756.info ...
    dc: vin = 1.757       (97.6 %), step = 1e-03       (55.6 m%)
dc-1757: writing operating point information to rawfile.

Opening the PSF file ../psf/dc-1757.info ...
    dc: vin = 1.758       (97.7 %), step = 1e-03       (55.6 m%)
dc-1758: writing operating point information to rawfile.

Opening the PSF file ../psf/dc-1758.info ...
    dc: vin = 1.759       (97.7 %), step = 1e-03       (55.6 m%)
dc-1759: writing operating point information to rawfile.

Opening the PSF file ../psf/dc-1759.info ...
    dc: vin = 1.76        (97.8 %), step = 1e-03       (55.6 m%)
dc-1760: writing operating point information to rawfile.

Opening the PSF file ../psf/dc-1760.info ...
    dc: vin = 1.761       (97.8 %), step = 1e-03       (55.6 m%)
dc-1761: writing operating point information to rawfile.

Opening the PSF file ../psf/dc-1761.info ...
    dc: vin = 1.762       (97.9 %), step = 1e-03       (55.6 m%)
dc-1762: writing operating point information to rawfile.

Opening the PSF file ../psf/dc-1762.info ...
    dc: vin = 1.763       (97.9 %), step = 1e-03       (55.6 m%)
dc-1763: writing operating point information to rawfile.

Opening the PSF file ../psf/dc-1763.info ...
    dc: vin = 1.764         (98 %), step = 1e-03       (55.6 m%)
dc-1764: writing operating point information to rawfile.

Opening the PSF file ../psf/dc-1764.info ...
    dc: vin = 1.765       (98.1 %), step = 1e-03       (55.6 m%)
dc-1765: writing operating point information to rawfile.

Opening the PSF file ../psf/dc-1765.info ...
    dc: vin = 1.766       (98.1 %), step = 1e-03       (55.6 m%)
dc-1766: writing operating point information to rawfile.

Opening the PSF file ../psf/dc-1766.info ...
    dc: vin = 1.767       (98.2 %), step = 1e-03       (55.6 m%)
dc-1767: writing operating point information to rawfile.

Opening the PSF file ../psf/dc-1767.info ...
    dc: vin = 1.768       (98.2 %), step = 1e-03       (55.6 m%)
dc-1768: writing operating point information to rawfile.

Opening the PSF file ../psf/dc-1768.info ...
    dc: vin = 1.769       (98.3 %), step = 1e-03       (55.6 m%)
dc-1769: writing operating point information to rawfile.

Opening the PSF file ../psf/dc-1769.info ...
    dc: vin = 1.77        (98.3 %), step = 1e-03       (55.6 m%)
dc-1770: writing operating point information to rawfile.

Opening the PSF file ../psf/dc-1770.info ...
    dc: vin = 1.771       (98.4 %), step = 1e-03       (55.6 m%)
dc-1771: writing operating point information to rawfile.

Opening the PSF file ../psf/dc-1771.info ...
    dc: vin = 1.772       (98.4 %), step = 1e-03       (55.6 m%)
dc-1772: writing operating point information to rawfile.

Opening the PSF file ../psf/dc-1772.info ...
    dc: vin = 1.773       (98.5 %), step = 1e-03       (55.6 m%)
dc-1773: writing operating point information to rawfile.

Opening the PSF file ../psf/dc-1773.info ...
    dc: vin = 1.774       (98.6 %), step = 1e-03       (55.6 m%)
dc-1774: writing operating point information to rawfile.

Opening the PSF file ../psf/dc-1774.info ...
    dc: vin = 1.775       (98.6 %), step = 1e-03       (55.6 m%)
dc-1775: writing operating point information to rawfile.

Opening the PSF file ../psf/dc-1775.info ...
    dc: vin = 1.776       (98.7 %), step = 1e-03       (55.6 m%)
dc-1776: writing operating point information to rawfile.

Opening the PSF file ../psf/dc-1776.info ...
    dc: vin = 1.777       (98.7 %), step = 1e-03       (55.6 m%)
dc-1777: writing operating point information to rawfile.

Opening the PSF file ../psf/dc-1777.info ...
    dc: vin = 1.778       (98.8 %), step = 1e-03       (55.6 m%)
dc-1778: writing operating point information to rawfile.

Opening the PSF file ../psf/dc-1778.info ...
    dc: vin = 1.779       (98.8 %), step = 1e-03       (55.6 m%)
dc-1779: writing operating point information to rawfile.

Opening the PSF file ../psf/dc-1779.info ...
    dc: vin = 1.78        (98.9 %), step = 1e-03       (55.6 m%)
dc-1780: writing operating point information to rawfile.

Opening the PSF file ../psf/dc-1780.info ...
    dc: vin = 1.781       (98.9 %), step = 1e-03       (55.6 m%)
dc-1781: writing operating point information to rawfile.

Opening the PSF file ../psf/dc-1781.info ...
    dc: vin = 1.782         (99 %), step = 1e-03       (55.6 m%)
dc-1782: writing operating point information to rawfile.

Opening the PSF file ../psf/dc-1782.info ...
    dc: vin = 1.783       (99.1 %), step = 1e-03       (55.6 m%)
dc-1783: writing operating point information to rawfile.

Opening the PSF file ../psf/dc-1783.info ...
    dc: vin = 1.784       (99.1 %), step = 1e-03       (55.6 m%)
dc-1784: writing operating point information to rawfile.

Opening the PSF file ../psf/dc-1784.info ...
    dc: vin = 1.785       (99.2 %), step = 1e-03       (55.6 m%)
dc-1785: writing operating point information to rawfile.

Opening the PSF file ../psf/dc-1785.info ...
    dc: vin = 1.786       (99.2 %), step = 1e-03       (55.6 m%)
dc-1786: writing operating point information to rawfile.

Opening the PSF file ../psf/dc-1786.info ...
    dc: vin = 1.787       (99.3 %), step = 1e-03       (55.6 m%)
dc-1787: writing operating point information to rawfile.

Opening the PSF file ../psf/dc-1787.info ...
    dc: vin = 1.788       (99.3 %), step = 1e-03       (55.6 m%)
dc-1788: writing operating point information to rawfile.

Opening the PSF file ../psf/dc-1788.info ...
    dc: vin = 1.789       (99.4 %), step = 1e-03       (55.6 m%)
dc-1789: writing operating point information to rawfile.

Opening the PSF file ../psf/dc-1789.info ...
    dc: vin = 1.79        (99.4 %), step = 1e-03       (55.6 m%)
dc-1790: writing operating point information to rawfile.

Opening the PSF file ../psf/dc-1790.info ...
    dc: vin = 1.791       (99.5 %), step = 1e-03       (55.6 m%)
dc-1791: writing operating point information to rawfile.

Opening the PSF file ../psf/dc-1791.info ...
    dc: vin = 1.792       (99.6 %), step = 1e-03       (55.6 m%)
dc-1792: writing operating point information to rawfile.

Opening the PSF file ../psf/dc-1792.info ...
    dc: vin = 1.793       (99.6 %), step = 1e-03       (55.6 m%)
dc-1793: writing operating point information to rawfile.

Opening the PSF file ../psf/dc-1793.info ...
    dc: vin = 1.794       (99.7 %), step = 1e-03       (55.6 m%)
dc-1794: writing operating point information to rawfile.

Opening the PSF file ../psf/dc-1794.info ...
    dc: vin = 1.795       (99.7 %), step = 1e-03       (55.6 m%)
dc-1795: writing operating point information to rawfile.

Opening the PSF file ../psf/dc-1795.info ...
    dc: vin = 1.796       (99.8 %), step = 1e-03       (55.6 m%)
dc-1796: writing operating point information to rawfile.

Opening the PSF file ../psf/dc-1796.info ...
    dc: vin = 1.797       (99.8 %), step = 1e-03       (55.6 m%)
dc-1797: writing operating point information to rawfile.

Opening the PSF file ../psf/dc-1797.info ...
    dc: vin = 1.798       (99.9 %), step = 1e-03       (55.6 m%)
dc-1798: writing operating point information to rawfile.

Opening the PSF file ../psf/dc-1798.info ...
    dc: vin = 1.799       (99.9 %), step = 1e-03       (55.6 m%)
dc-1799: writing operating point information to rawfile.

Opening the PSF file ../psf/dc-1799.info ...
    dc: vin = 1.8          (100 %), step = 1e-03       (55.6 m%)
dc-1800: writing operating point information to rawfile.

Opening the PSF file ../psf/dc-1800.info ...

Maximum value achieved for any signal of each quantity: 
V: V(net1) = 1.8 V
I: I(V0:p) = 15.19 pA
DC simulation time: CPU = 3.51455 s, elapsed = 1.83068 s.

Notice from spectre at vin = 1.8 during DC analysis `dc'.
    The value of parameter 'vin' has been reset to the original value 0.9.

Total time required for dc analysis `dc': CPU = 3.5146 s, elapsed = 1.8307 s.
Time accumulated: CPU = 3.8271 s, elapsed = 2.14538 s.
Peak resident memory used = 87.4 Mbytes.


*****************************************
AC Analysis `ac': freq = (10 Hz -> 1 GHz)
*****************************************
DC simulation time: CPU = 212 us, elapsed = 107.05 us.

Opening the PSF file ../psf/ac.ac ...
    ac: freq = 20.89 Hz       (4 %), step = 6.439 Hz        (2 %)
    ac: freq = 30.2 Hz        (6 %), step = 9.307 Hz        (2 %)
    ac: freq = 43.65 Hz       (8 %), step = 13.45 Hz        (2 %)
    ac: freq = 63.1 Hz       (10 %), step = 19.44 Hz        (2 %)
    ac: freq = 91.2 Hz       (12 %), step = 28.11 Hz        (2 %)
    ac: freq = 131.8 Hz      (14 %), step = 40.62 Hz        (2 %)
    ac: freq = 190.5 Hz      (16 %), step = 58.72 Hz        (2 %)
    ac: freq = 275.4 Hz      (18 %), step = 84.88 Hz        (2 %)
    ac: freq = 398.1 Hz      (20 %), step = 122.7 Hz        (2 %)
    ac: freq = 575.4 Hz      (22 %), step = 177.3 Hz        (2 %)
    ac: freq = 831.8 Hz      (24 %), step = 256.3 Hz        (2 %)
    ac: freq = 1.202 kHz     (26 %), step = 370.5 Hz        (2 %)
    ac: freq = 1.738 kHz     (28 %), step = 535.5 Hz        (2 %)
    ac: freq = 2.512 kHz     (30 %), step = 774.1 Hz        (2 %)
    ac: freq = 3.631 kHz     (32 %), step = 1.119 kHz       (2 %)
    ac: freq = 5.248 kHz     (34 %), step = 1.617 kHz       (2 %)
    ac: freq = 7.586 kHz     (36 %), step = 2.338 kHz       (2 %)
    ac: freq = 10.96 kHz     (38 %), step = 3.379 kHz       (2 %)
    ac: freq = 15.85 kHz     (40 %), step = 4.884 kHz       (2 %)
    ac: freq = 22.91 kHz     (42 %), step = 7.06 kHz        (2 %)
    ac: freq = 33.11 kHz     (44 %), step = 10.2 kHz        (2 %)
    ac: freq = 47.86 kHz     (46 %), step = 14.75 kHz       (2 %)
    ac: freq = 69.18 kHz     (48 %), step = 21.32 kHz       (2 %)
    ac: freq = 100 kHz       (50 %), step = 30.82 kHz       (2 %)
    ac: freq = 144.5 kHz     (52 %), step = 44.54 kHz       (2 %)
    ac: freq = 208.9 kHz     (54 %), step = 64.39 kHz       (2 %)
    ac: freq = 302 kHz       (56 %), step = 93.07 kHz       (2 %)
    ac: freq = 436.5 kHz     (58 %), step = 134.5 kHz       (2 %)
    ac: freq = 631 kHz       (60 %), step = 194.4 kHz       (2 %)
    ac: freq = 912 kHz       (62 %), step = 281.1 kHz       (2 %)
    ac: freq = 1.318 MHz     (64 %), step = 406.2 kHz       (2 %)
    ac: freq = 1.905 MHz     (66 %), step = 587.2 kHz       (2 %)
    ac: freq = 2.754 MHz     (68 %), step = 848.8 kHz       (2 %)
    ac: freq = 3.981 MHz     (70 %), step = 1.227 MHz       (2 %)
    ac: freq = 5.754 MHz     (72 %), step = 1.773 MHz       (2 %)
    ac: freq = 8.318 MHz     (74 %), step = 2.563 MHz       (2 %)
    ac: freq = 12.02 MHz     (76 %), step = 3.705 MHz       (2 %)
    ac: freq = 17.38 MHz     (78 %), step = 5.355 MHz       (2 %)
    ac: freq = 25.12 MHz     (80 %), step = 7.741 MHz       (2 %)
    ac: freq = 36.31 MHz     (82 %), step = 11.19 MHz       (2 %)
    ac: freq = 52.48 MHz     (84 %), step = 16.17 MHz       (2 %)
    ac: freq = 75.86 MHz     (86 %), step = 23.38 MHz       (2 %)
    ac: freq = 109.6 MHz     (88 %), step = 33.79 MHz       (2 %)
    ac: freq = 158.5 MHz     (90 %), step = 48.84 MHz       (2 %)
    ac: freq = 229.1 MHz     (92 %), step = 70.6 MHz        (2 %)
    ac: freq = 331.1 MHz     (94 %), step = 102 MHz         (2 %)
    ac: freq = 478.6 MHz     (96 %), step = 147.5 MHz       (2 %)
    ac: freq = 691.8 MHz     (98 %), step = 213.2 MHz       (2 %)
    ac: freq = 1 GHz        (100 %), step = 308.2 MHz       (2 %)
Accumulated DC solution time =            0 s.
Intrinsic ac analysis time =              0 s.
Total time required for ac analysis `ac': CPU = 3.928 ms, elapsed = 2.00486 ms.
Time accumulated: CPU = 3.83151 s, elapsed = 2.14763 s.
Peak resident memory used = 87.5 Mbytes.


************************************************
Transient Analysis `tran': time = (0 s -> 20 ns)
************************************************
DC simulation time: CPU = 175 us, elapsed = 87.9765 us.

Opening the PSFXL file ../psf/tran.tran.tran ...
Important parameter values:
    start = 0 s
    outputstart = 0 s
    stop = 20 ns
    step = 20 ps
    maxstep = 400 ps
    ic = all
    useprevic = no
    skipdc = no
    reltol = 1e-03
    abstol(V) = 1 uV
    abstol(I) = 1 pA
    temp = 27 C
    tnom = 27 C
    tempeffects = all
    errpreset = moderate
    method = traponly
    lteratio = 3.5
    relref = sigglobal
    cmin = 0 F
    gmin = 1 pS


Output and IC/nodeset summary:
                 save   2       (current)
                 save   3       (voltage)


Notice from spectre at time = 526.779 ps during transient analysis `tran'.
    Found trapezoidal ringing on node V1:p.

    tran: time = 526.8 ps    (2.63 %), step = 211.7 ps     (1.06 %)

Notice from spectre at time = 926.779 ps during transient analysis `tran'.
    Found trapezoidal ringing on node V1:p.

    tran: time = 1.727 ns    (8.63 %), step = 400 ps          (2 %)
    tran: time = 2.527 ns    (12.6 %), step = 400 ps          (2 %)
    tran: time = 3.727 ns    (18.6 %), step = 400 ps          (2 %)
    tran: time = 4.527 ns    (22.6 %), step = 400 ps          (2 %)
    tran: time = 5.678 ns    (28.4 %), step = 287.3 ps     (1.44 %)
    tran: time = 6.878 ns    (34.4 %), step = 400 ps          (2 %)
    tran: time = 7.678 ns    (38.4 %), step = 400 ps          (2 %)
    tran: time = 8.878 ns    (44.4 %), step = 400 ps          (2 %)
    tran: time = 9.678 ns    (48.4 %), step = 400 ps          (2 %)
    tran: time = 10.64 ns    (53.2 %), step = 267.4 ps     (1.34 %)
    tran: time = 11.84 ns    (59.2 %), step = 400 ps          (2 %)
    tran: time = 12.64 ns    (63.2 %), step = 400 ps          (2 %)
    tran: time = 13.84 ns    (69.2 %), step = 400 ps          (2 %)
    tran: time = 14.64 ns    (73.2 %), step = 400 ps          (2 %)
    tran: time = 15.63 ns    (78.2 %), step = 263.4 ps     (1.32 %)
    tran: time = 16.83 ns    (84.2 %), step = 400 ps          (2 %)
    tran: time = 17.63 ns    (88.2 %), step = 400 ps          (2 %)
    tran: time = 18.83 ns    (94.2 %), step = 400 ps          (2 %)
    tran: time = 19.63 ns    (98.2 %), step = 400 ps          (2 %)
Number of accepted tran steps =             96

Notice from spectre during transient analysis `tran'.
    Trapezoidal ringing is detected during tran analysis.
        Please use method=trap for better results and performance.


Maximum value achieved for any signal of each quantity: 
V: V(I0.PM0:int_d) = 1.801 V
I: I(V0:p) = 523.6 uA
If your circuit contains signals of the same quantity that are vastly different in size (such as high voltage circuitry combined with low voltage control circuitry), you should consider specifying global option `bin_relref=yes'.

~~~~~~~~~~~~~~~~~~~~~~~~~~~~~~~~~
Post-Transient Simulation Summary
~~~~~~~~~~~~~~~~~~~~~~~~~~~~~~~~~
   -   To further speed up simulation, consider
          add ++aps on command line
~~~~~~~~~~~~~~~~~~~~~~~~~~~~~~~~~


During simulation, the CPU load for active processors is :
         0 (7.8 %)       2 (5.8 %)       4 (5.3 %)       6 (9.6 %)
         8 (3.9 %)       9 (1.5 %)      10 (4.3 %)      12 (4.9 %)
        16 (9.3 %)      18 (7.3 %)      20 (7.8 %)      22 (8.2 %)
        24 (12.0 %)     26 (4.9 %)      28 (8.7 %)      30 (6.4 %)
        35 (93.8 %)     
        Total: 205.6%
Initial condition solution time: CPU = 221 us, elapsed = 112.057 us.
Intrinsic tran analysis time:    CPU = 8.096 ms, elapsed = 4.10295 ms.
Total time required for tran analysis `tran': CPU = 10.343 ms, elapsed = 5.22685 ms.
Time accumulated: CPU = 3.84337 s, elapsed = 2.15362 s.
Peak resident memory used = 88.7 Mbytes.

finalTimeOP: writing operating point information to rawfile.

Opening the PSF file ../psf/finalTimeOP.info ...
modelParameter: writing model parameter values to rawfile.

Opening the PSF file ../psf/modelParameter.info ...
element: writing instance parameter values to rawfile.

Opening the PSF file ../psf/element.info ...
outputParameter: writing output parameter values to rawfile.

Opening the PSF file ../psf/outputParameter.info ...
designParamVals: writing netlist parameters to rawfile.

Opening the PSFASCII file ../psf/designParamVals.info ...
primitives: writing primitives to rawfile.

Opening the PSFASCII file ../psf/primitives.info.primitives ...
subckts: writing subcircuits to rawfile.

Opening the PSFASCII file ../psf/subckts.info.subckts ...
Licensing Information:
Lic Summary:
[00:49:23.001184] cdslmd servers: /opt/Cadence/lic/Cadence.dat
[00:49:23.016528] Feature usage summary:
[00:49:23.188055]   Virtuoso_Spectre  


Aggregate audit (12:49:23 AM, Mon Dec 4, 2023):
Time used: CPU = 4.38 s, elapsed = 949 s (15m  48.9s), util. = 462e-03%.
Time spent in licensing: elapsed = 84 ms.
Peak memory used = 91.1 Mbytes.
Simulation started at: 12:33:34 AM, Mon Dec 4, 2023, ended at: 12:49:23 AM, Mon Dec 4, 2023, with elapsed time (wall clock): 949 s (15m  48.9s).
spectre completes with 0 errors, 5 warnings, and 5 notices.
